xflr5 v6.57

ekrano plane
T1-10.0 m/s-Panel-Inviscid
QInf  =   10.000000 m/s
Alpha =    5.000000
Beta  =    0.000°
Phi   =    0.000°
Ctrl  =    0.000
CL    =    0.924454
Cy    =    0.000000
Cd    =    0.033886     ICd   =    0.033886     PCd   =    0.000000
Cl   = 1.68211e-15
Cm   =    -0.40226
ICn   =   -0.000000     PCn   =   -0.000000 
XCP   =    3.601417     YCP   =   -0.000000     ZCP   =    1.050459  
XNP   =    0.000000
Bending = 169391.883882

Main Wing
  y-span        Chord      Ai         Cl        PCd          ICd        CmGeom    CmAirf@chord/4    XTrtop    XTrBot      XCP       BM
  -31.2465     4.5617    -4.408    0.219093    0.000000    0.016889   -0.216928   -0.041992     0.0000    0.0000    0.3926    0.0000
  -31.0331     4.6084    -3.902    0.369938    0.000000    0.025230   -0.296211   -0.059444     0.0000    0.0000    0.3993    1.4418
  -30.6077     4.7015    -3.458    0.514186    0.000000    0.031072   -0.354295   -0.057349     0.0000    0.0000    0.3620   18.9881
  -29.9732     4.8404    -3.044    0.636936    0.000000    0.033864   -0.426039   -0.066468     0.0000    0.0000    0.3540   96.6397
  -29.1339     5.0241    -2.669    0.735563    0.000000    0.034287   -0.481192   -0.075825     0.0000    0.0000    0.3514   320.0941
  -28.0956     5.2513    -2.354    0.811263    0.000000    0.033343   -0.515030   -0.082997     0.0000    0.0000    0.3496   824.6439
  -26.8654     5.5205    -2.107    0.867032    0.000000    0.031896   -0.530122   -0.087983     0.0000    0.0000    0.3481   1798.8976
  -25.4517     5.8299    -1.929    0.906395    0.000000    0.030511   -0.530805   -0.091287     0.0000    0.0000    0.3469   3484.9612
  -23.8641     6.1773    -1.811    0.932674    0.000000    0.029478   -0.521280   -0.093399     0.0000    0.0000    0.3460   6175.5899
  -22.1135     6.5605    -1.745    0.948672    0.000000    0.028897   -0.505007   -0.094680     0.0000    0.0000    0.3455   10208.5357
  -20.2119     6.9766    -1.724    0.956601    0.000000    0.028776   -0.484607   -0.095372     0.0000    0.0000    0.3453   15958.1055
  -18.1722     7.4230    -1.738    0.958110    0.000000    0.029056   -0.461939   -0.095617     0.0000    0.0000    0.3454   23823.8824
  -16.0083     7.8966    -1.784    0.954435    0.000000    0.029713   -0.438323   -0.095540     0.0000    0.0000    0.3458   34216.5866
  -13.7351     8.3941    -1.857    0.946349    0.000000    0.030662   -0.414524   -0.095157     0.0000    0.0000    0.3464   47541.3654
  -11.3681     8.9121    -1.955    0.934353    0.000000    0.031869   -0.391014   -0.094488     0.0000    0.0000    0.3471   64178.5852
   -8.9234     9.4471    -2.077    0.918636    0.000000    0.033292   -0.367981   -0.093497     0.0000    0.0000    0.3480   84462.9046
   -6.4178     9.9955    -2.228    0.899095    0.000000    0.034936   -0.345375   -0.092094     0.0000    0.0000    0.3489   108661.1571
   -3.8683    10.5534    -2.414    0.875058    0.000000    0.036832   -0.322823   -0.090047     0.0000    0.0000    0.3497   136949.8302
   -1.2924    11.1172    -2.659    0.843325    0.000000    0.039006   -0.299256   -0.086733     0.0000    0.0000    0.3499   169391.8839
    1.2924    11.1172    -2.659    0.843325    0.000000    0.039006   -0.299256   -0.086733     0.0000    0.0000    0.3499   169391.8839
    3.8683    10.5534    -2.414    0.875058    0.000000    0.036832   -0.322823   -0.090047     0.0000    0.0000    0.3497   136949.8302
    6.4178     9.9955    -2.228    0.899095    0.000000    0.034936   -0.345375   -0.092094     0.0000    0.0000    0.3489   108661.1571
    8.9234     9.4471    -2.077    0.918636    0.000000    0.033292   -0.367981   -0.093497     0.0000    0.0000    0.3480   84462.9046
   11.3681     8.9121    -1.955    0.934353    0.000000    0.031869   -0.391014   -0.094488     0.0000    0.0000    0.3471   64178.5852
   13.7351     8.3941    -1.857    0.946349    0.000000    0.030662   -0.414524   -0.095157     0.0000    0.0000    0.3464   47541.3654
   16.0083     7.8966    -1.784    0.954435    0.000000    0.029713   -0.438323   -0.095540     0.0000    0.0000    0.3458   34216.5866
   18.1722     7.4230    -1.738    0.958110    0.000000    0.029056   -0.461939   -0.095617     0.0000    0.0000    0.3454   23823.8824
   20.2119     6.9766    -1.724    0.956601    0.000000    0.028776   -0.484607   -0.095372     0.0000    0.0000    0.3453   15958.1055
   22.1135     6.5605    -1.745    0.948672    0.000000    0.028897   -0.505007   -0.094680     0.0000    0.0000    0.3455   10208.5357
   23.8641     6.1773    -1.811    0.932674    0.000000    0.029478   -0.521280   -0.093399     0.0000    0.0000    0.3460   6175.5899
   25.4517     5.8299    -1.929    0.906395    0.000000    0.030511   -0.530805   -0.091287     0.0000    0.0000    0.3469   3484.9612
   26.8654     5.5205    -2.107    0.867032    0.000000    0.031896   -0.530122   -0.087983     0.0000    0.0000    0.3481   1798.8976
   28.0956     5.2513    -2.354    0.811263    0.000000    0.033343   -0.515030   -0.082997     0.0000    0.0000    0.3496   824.6439
   29.1339     5.0241    -2.669    0.735563    0.000000    0.034287   -0.481192   -0.075825     0.0000    0.0000    0.3514   320.0941
   29.9732     4.8404    -3.044    0.636936    0.000000    0.033864   -0.426039   -0.066468     0.0000    0.0000    0.3540   96.6397
   30.6077     4.7015    -3.458    0.514186    0.000000    0.031072   -0.354295   -0.057349     0.0000    0.0000    0.3620   18.9881
   31.0331     4.6084    -3.902    0.369938    0.000000    0.025230   -0.296211   -0.059444     0.0000    0.0000    0.3993    1.4418
   31.2465     4.5617    -4.408    0.219093    0.000000    0.016889   -0.216928   -0.041992     0.0000    0.0000    0.3926    0.0000


Main Wing Cp Coefficients
 Panel     CtrlPt.x        CtrlPt.y        CtrlPt.z       Nx      Ny       Nz        Area       Cp
Main WingCp Coefficients
Strip 1
  13       6.226e+00      -3.124e+01       5.786e-01           0.123          -0.036          -0.992       7.142e-03         -0.6591
  14       6.095e+00      -3.124e+01       5.671e-01           0.076          -0.028          -0.997       2.091e-02         -0.6860
  15       5.841e+00      -3.124e+01       5.550e-01           0.030          -0.021          -0.999       3.341e-02         -0.5889
  16       5.479e+00      -3.124e+01       5.477e-01           0.013          -0.019          -1.000       4.401e-02         -0.4023
  17       5.030e+00      -3.124e+01       5.477e-01          -0.011          -0.016          -1.000       5.206e-02         -0.2759
  18       4.519e+00      -3.124e+01       5.610e-01          -0.040          -0.013          -0.999       5.713e-02         -0.1757
  19       3.978e+00      -3.124e+01       5.833e-01          -0.042          -0.013          -0.999       5.884e-02         -0.0849
  20       3.436e+00      -3.124e+01       5.967e-01          -0.007          -0.015          -1.000       5.708e-02         -0.0182
  21       2.925e+00      -3.124e+01       5.831e-01           0.063          -0.016          -0.998       5.216e-02         -0.0087
  22       2.476e+00      -3.124e+01       5.566e-01           0.054          -0.016          -0.998       4.407e-02         -0.0413
  23       2.114e+00      -3.124e+01       5.459e-01          -0.003          -0.018          -1.000       3.340e-02         -0.0828
  24       1.860e+00      -3.124e+01       5.633e-01          -0.172          -0.024          -0.985       2.116e-02         -0.1083
  25       1.729e+00      -3.124e+01       6.082e-01          -0.644          -0.045          -0.764       9.265e-03          0.3673
  26       1.729e+00      -3.124e+01       6.964e-01          -0.875          -0.041           0.482       1.472e-02          0.4879
  27       1.860e+00      -3.124e+01       8.518e-01          -0.698          -0.031           0.715       2.916e-02         -0.1491
  28       2.114e+00      -3.123e+01       1.022e+00          -0.432          -0.020           0.901       3.705e-02         -0.6133
  29       2.476e+00      -3.123e+01       1.141e+00          -0.209          -0.014           0.978       4.498e-02         -0.6650
  30       2.925e+00      -3.123e+01       1.188e+00          -0.013          -0.013           1.000       5.204e-02         -0.5389
  31       3.436e+00      -3.123e+01       1.176e+00           0.057          -0.014           0.998       5.716e-02         -0.4231
  32       3.978e+00      -3.123e+01       1.126e+00           0.125          -0.017           0.992       5.925e-02         -0.3877
  33       4.519e+00      -3.123e+01       1.044e+00           0.173          -0.020           0.985       5.796e-02         -0.3787
  34       5.030e+00      -3.123e+01       9.427e-01           0.220          -0.025           0.975       5.338e-02         -0.4030
  35       5.479e+00      -3.124e+01       8.306e-01           0.268          -0.030           0.963       4.571e-02         -0.4827
  36       5.841e+00      -3.124e+01       7.253e-01           0.294          -0.034           0.955       3.498e-02         -0.6724
  37       6.095e+00      -3.124e+01       6.429e-01           0.331          -0.040           0.943       2.213e-02         -0.9817
  38       6.226e+00      -3.124e+01       5.957e-01           0.363          -0.045           0.931       7.621e-03         -1.0783
Strip 2
  39       6.260e+00      -3.103e+01       5.752e-01           0.123          -0.036          -0.992       2.160e-02         -0.1587
  40       6.128e+00      -3.103e+01       5.636e-01           0.076          -0.028          -0.997       6.323e-02         -0.2117
  41       5.872e+00      -3.103e+01       5.513e-01           0.030          -0.021          -0.999       1.010e-01         -0.2359
  42       5.506e+00      -3.103e+01       5.440e-01           0.013          -0.019          -1.000       1.331e-01         -0.2059
  43       5.052e+00      -3.103e+01       5.440e-01          -0.011          -0.016          -1.000       1.574e-01         -0.1711
  44       4.537e+00      -3.103e+01       5.574e-01          -0.040          -0.013          -0.999       1.727e-01         -0.1077
  45       3.989e+00      -3.103e+01       5.800e-01          -0.042          -0.013          -0.999       1.779e-01         -0.0246
  46       3.442e+00      -3.103e+01       5.935e-01          -0.007          -0.015          -1.000       1.726e-01          0.0397
  47       2.926e+00      -3.103e+01       5.798e-01           0.063          -0.016          -0.998       1.577e-01          0.0296
  48       2.472e+00      -3.103e+01       5.530e-01           0.054          -0.016          -0.998       1.333e-01         -0.0335
  49       2.106e+00      -3.103e+01       5.422e-01          -0.003          -0.018          -1.000       1.010e-01         -0.1051
  50       1.850e+00      -3.103e+01       5.598e-01          -0.172          -0.024          -0.985       6.399e-02         -0.1106
  51       1.718e+00      -3.103e+01       6.051e-01          -0.643          -0.045          -0.764       2.802e-02          0.3597
  52       1.718e+00      -3.103e+01       6.942e-01          -0.875          -0.041           0.482       4.451e-02          0.5935
  53       1.850e+00      -3.102e+01       8.512e-01          -0.698          -0.031           0.715       8.816e-02         -0.1282
  54       2.106e+00      -3.102e+01       1.023e+00          -0.432          -0.020           0.901       1.120e-01         -0.7764
  55       2.472e+00      -3.102e+01       1.143e+00          -0.209          -0.014           0.978       1.360e-01         -0.8654
  56       2.926e+00      -3.102e+01       1.191e+00          -0.013          -0.013           1.000       1.574e-01         -0.6865
  57       3.442e+00      -3.102e+01       1.179e+00           0.057          -0.014           0.998       1.728e-01         -0.5018
  58       3.989e+00      -3.102e+01       1.128e+00           0.125          -0.017           0.992       1.792e-01         -0.4214
  59       4.537e+00      -3.102e+01       1.046e+00           0.173          -0.020           0.985       1.753e-01         -0.3749
  60       5.052e+00      -3.102e+01       9.431e-01           0.220          -0.025           0.975       1.614e-01         -0.3605
  61       5.506e+00      -3.102e+01       8.298e-01           0.268          -0.030           0.963       1.382e-01         -0.3714
  62       5.872e+00      -3.103e+01       7.234e-01           0.294          -0.034           0.955       1.058e-01         -0.4385
  63       6.128e+00      -3.103e+01       6.402e-01           0.331          -0.040           0.943       6.692e-02         -0.4935
  64       6.260e+00      -3.103e+01       5.925e-01           0.363          -0.045           0.931       2.304e-02         -0.4638
Strip 3
  65       6.330e+00      -3.060e+01       5.685e-01           0.123          -0.036          -0.992       3.655e-02          0.1470
  66       6.195e+00      -3.060e+01       5.566e-01           0.076          -0.028          -0.997       1.070e-01          0.0670
  67       5.934e+00      -3.060e+01       5.441e-01           0.030          -0.021          -0.999       1.710e-01         -0.0250
  68       5.560e+00      -3.060e+01       5.366e-01           0.013          -0.019          -1.000       2.252e-01         -0.0566
  69       5.097e+00      -3.060e+01       5.366e-01          -0.011          -0.016          -1.000       2.665e-01         -0.0637
  70       4.571e+00      -3.060e+01       5.503e-01          -0.040          -0.013          -0.999       2.924e-01         -0.0220
  71       4.013e+00      -3.060e+01       5.733e-01          -0.042          -0.013          -0.999       3.012e-01          0.0523
  72       3.454e+00      -3.060e+01       5.871e-01          -0.007          -0.015          -1.000       2.922e-01          0.1093
  73       2.928e+00      -3.060e+01       5.731e-01           0.063          -0.016          -0.998       2.670e-01          0.0848
  74       2.465e+00      -3.060e+01       5.458e-01           0.054          -0.016          -0.998       2.256e-01          0.0091
  75       2.092e+00      -3.060e+01       5.348e-01          -0.003          -0.018          -1.000       1.709e-01         -0.0566
  76       1.830e+00      -3.060e+01       5.527e-01          -0.172          -0.024          -0.985       1.083e-01         -0.0190
  77       1.696e+00      -3.060e+01       5.990e-01          -0.643          -0.045          -0.764       4.742e-02          0.4512
  78       1.696e+00      -3.060e+01       6.898e-01          -0.875          -0.041           0.482       7.534e-02          0.6017
  79       1.830e+00      -3.060e+01       8.501e-01          -0.698          -0.031           0.715       1.492e-01         -0.1595
  80       2.092e+00      -3.059e+01       1.025e+00          -0.432          -0.020           0.901       1.896e-01         -0.9329
  81       2.465e+00      -3.059e+01       1.148e+00          -0.209          -0.014           0.978       2.302e-01         -1.0736
  82       2.928e+00      -3.059e+01       1.197e+00          -0.013          -0.013           1.000       2.664e-01         -0.8599
  83       3.454e+00      -3.059e+01       1.184e+00           0.057          -0.014           0.998       2.925e-01         -0.6119
  84       4.013e+00      -3.059e+01       1.133e+00           0.125          -0.017           0.992       3.032e-01         -0.4779
  85       4.571e+00      -3.059e+01       1.049e+00           0.173          -0.020           0.985       2.966e-01         -0.3816
  86       5.097e+00      -3.060e+01       9.437e-01           0.220          -0.025           0.975       2.732e-01         -0.3096
  87       5.560e+00      -3.060e+01       8.282e-01           0.268          -0.030           0.963       2.339e-01         -0.2277
  88       5.934e+00      -3.060e+01       7.197e-01           0.294          -0.034           0.955       1.790e-01         -0.1498
  89       6.195e+00      -3.060e+01       6.347e-01           0.331          -0.040           0.943       1.133e-01         -0.0149
  90       6.330e+00      -3.060e+01       5.861e-01           0.363          -0.045           0.931       3.900e-02          0.0932
Strip 4
  91       6.433e+00      -2.997e+01       5.584e-01           0.123          -0.036          -0.992       5.233e-02          0.2203
  92       6.295e+00      -2.997e+01       5.462e-01           0.076          -0.028          -0.997       1.532e-01          0.1422
  93       6.025e+00      -2.997e+01       5.333e-01           0.030          -0.021          -0.999       2.448e-01          0.0510
  94       5.641e+00      -2.997e+01       5.256e-01           0.013          -0.019          -1.000       3.224e-01          0.0158
  95       5.164e+00      -2.997e+01       5.256e-01          -0.011          -0.016          -1.000       3.814e-01          0.0022
  96       4.623e+00      -2.997e+01       5.397e-01          -0.040          -0.013          -0.999       4.186e-01          0.0375
  97       4.048e+00      -2.997e+01       5.634e-01          -0.042          -0.013          -0.999       4.311e-01          0.1078
  98       3.473e+00      -2.997e+01       5.776e-01          -0.007          -0.015          -1.000       4.182e-01          0.1618
  99       2.931e+00      -2.997e+01       5.632e-01           0.063          -0.016          -0.998       3.821e-01          0.1362
 100       2.454e+00      -2.997e+01       5.351e-01           0.054          -0.016          -0.998       3.229e-01          0.0642
 101       2.070e+00      -2.997e+01       5.237e-01          -0.003          -0.018          -1.000       2.447e-01          0.0126
 102       1.801e+00      -2.997e+01       5.422e-01          -0.172          -0.024          -0.985       1.551e-01          0.0828
 103       1.662e+00      -2.997e+01       5.898e-01          -0.643          -0.045          -0.764       6.789e-02          0.5582
 104       1.662e+00      -2.997e+01       6.834e-01          -0.875          -0.041           0.482       1.078e-01          0.5204
 105       1.801e+00      -2.996e+01       8.483e-01          -0.698          -0.031           0.715       2.136e-01         -0.2496
 106       2.070e+00      -2.996e+01       1.029e+00          -0.432          -0.020           0.901       2.714e-01         -1.0748
 107       2.454e+00      -2.996e+01       1.155e+00          -0.209          -0.014           0.978       3.296e-01         -1.2391
 108       2.931e+00      -2.996e+01       1.205e+00          -0.013          -0.013           1.000       3.813e-01         -1.0084
 109       3.473e+00      -2.996e+01       1.192e+00           0.057          -0.014           0.998       4.188e-01         -0.7240
 110       4.048e+00      -2.996e+01       1.139e+00           0.125          -0.017           0.992       4.341e-01         -0.5557
 111       4.623e+00      -2.996e+01       1.053e+00           0.173          -0.020           0.985       4.246e-01         -0.4254
 112       5.164e+00      -2.996e+01       9.448e-01           0.220          -0.025           0.975       3.911e-01         -0.3179
 113       5.641e+00      -2.996e+01       8.258e-01           0.268          -0.030           0.963       3.349e-01         -0.1926
 114       6.025e+00      -2.997e+01       7.141e-01           0.294          -0.034           0.955       2.563e-01         -0.0681
 115       6.295e+00      -2.997e+01       6.266e-01           0.331          -0.040           0.943       1.621e-01          0.1040
 116       6.433e+00      -2.997e+01       5.765e-01           0.363          -0.045           0.931       5.583e-02          0.2268
Strip 5
 117       6.570e+00      -2.913e+01       5.451e-01           0.123          -0.036          -0.992       6.919e-02          0.2477
 118       6.426e+00      -2.913e+01       5.324e-01           0.076          -0.028          -0.997       2.026e-01          0.1724
 119       6.147e+00      -2.913e+01       5.191e-01           0.030          -0.021          -0.999       3.237e-01          0.0850
 120       5.748e+00      -2.913e+01       5.111e-01           0.013          -0.019          -1.000       4.264e-01          0.0526
 121       5.253e+00      -2.913e+01       5.111e-01          -0.011          -0.016          -1.000       5.044e-01          0.0408
 122       4.691e+00      -2.913e+01       5.257e-01          -0.040          -0.013          -0.999       5.535e-01          0.0760
 123       4.094e+00      -2.913e+01       5.503e-01          -0.042          -0.013          -0.999       5.701e-01          0.1453
 124       3.497e+00      -2.913e+01       5.650e-01          -0.007          -0.015          -1.000       5.530e-01          0.1992
 125       2.935e+00      -2.913e+01       5.501e-01           0.063          -0.016          -0.998       5.053e-01          0.1772
 126       2.440e+00      -2.913e+01       5.209e-01           0.054          -0.016          -0.998       4.269e-01          0.1132
 127       2.041e+00      -2.913e+01       5.091e-01          -0.003          -0.018          -1.000       3.236e-01          0.0761
 128       1.762e+00      -2.913e+01       5.283e-01          -0.172          -0.024          -0.985       2.050e-01          0.1764
 129       1.618e+00      -2.913e+01       5.777e-01          -0.643          -0.045          -0.764       8.977e-02          0.6566
 130       1.618e+00      -2.913e+01       6.748e-01          -0.875          -0.041           0.482       1.426e-01          0.4119
 131       1.762e+00      -2.912e+01       8.460e-01          -0.698          -0.031           0.715       2.824e-01         -0.3481
 132       2.041e+00      -2.912e+01       1.033e+00          -0.432          -0.020           0.901       3.589e-01         -1.1959
 133       2.440e+00      -2.912e+01       1.164e+00          -0.209          -0.014           0.978       4.358e-01         -1.3653
 134       2.935e+00      -2.912e+01       1.216e+00          -0.013          -0.013           1.000       5.042e-01         -1.1224
 135       3.497e+00      -2.912e+01       1.203e+00           0.057          -0.014           0.998       5.537e-01         -0.8168
 136       4.094e+00      -2.912e+01       1.148e+00           0.125          -0.017           0.992       5.740e-01         -0.6283
 137       4.691e+00      -2.912e+01       1.058e+00           0.173          -0.020           0.985       5.615e-01         -0.4760
 138       5.253e+00      -2.912e+01       9.461e-01           0.220          -0.025           0.975       5.171e-01         -0.3451
 139       5.748e+00      -2.912e+01       8.227e-01           0.268          -0.030           0.963       4.428e-01         -0.1938
 140       6.147e+00      -2.913e+01       7.067e-01           0.294          -0.034           0.955       3.389e-01         -0.0455
 141       6.426e+00      -2.913e+01       6.159e-01           0.331          -0.040           0.943       2.144e-01          0.1445
 142       6.570e+00      -2.913e+01       5.639e-01           0.363          -0.045           0.931       7.382e-02          0.2756
Strip 6
 143       6.739e+00      -2.809e+01       5.287e-01           0.123          -0.036          -0.992       8.738e-02          0.2602
 144       6.589e+00      -2.809e+01       5.154e-01           0.076          -0.028          -0.997       2.558e-01          0.1873
 145       6.297e+00      -2.809e+01       5.014e-01           0.030          -0.021          -0.999       4.088e-01          0.1033
 146       5.880e+00      -2.809e+01       4.931e-01           0.013          -0.019          -1.000       5.384e-01          0.0739
 147       5.363e+00      -2.809e+01       4.931e-01          -0.011          -0.016          -1.000       6.369e-01          0.0652
 148       4.775e+00      -2.809e+01       5.084e-01          -0.040          -0.013          -0.999       6.989e-01          0.1020
 149       4.151e+00      -2.809e+01       5.340e-01          -0.042          -0.013          -0.999       7.199e-01          0.1719
 150       3.527e+00      -2.809e+01       5.495e-01          -0.007          -0.015          -1.000       6.984e-01          0.2266
 151       2.940e+00      -2.809e+01       5.338e-01           0.063          -0.016          -0.998       6.381e-01          0.2086
 152       2.422e+00      -2.809e+01       5.034e-01           0.054          -0.016          -0.998       5.392e-01          0.1523
 153       2.006e+00      -2.809e+01       4.910e-01          -0.003          -0.018          -1.000       4.086e-01          0.1279
 154       1.714e+00      -2.809e+01       5.111e-01          -0.172          -0.024          -0.985       2.589e-01          0.2535
 155       1.563e+00      -2.809e+01       5.628e-01          -0.643          -0.045          -0.764       1.134e-01          0.7337
 156       1.563e+00      -2.809e+01       6.642e-01          -0.875          -0.041           0.482       1.801e-01          0.3019
 157       1.714e+00      -2.809e+01       8.432e-01          -0.698          -0.031           0.715       3.567e-01         -0.4385
 158       2.006e+00      -2.808e+01       1.039e+00          -0.433          -0.020           0.901       4.532e-01         -1.2961
 159       2.422e+00      -2.808e+01       1.176e+00          -0.209          -0.014           0.978       5.503e-01         -1.4618
 160       2.940e+00      -2.808e+01       1.230e+00          -0.013          -0.013           1.000       6.367e-01         -1.2066
 161       3.527e+00      -2.808e+01       1.216e+00           0.057          -0.014           0.998       6.993e-01         -0.8860
 162       4.151e+00      -2.808e+01       1.159e+00           0.125          -0.017           0.992       7.248e-01         -0.6844
 163       4.775e+00      -2.808e+01       1.065e+00           0.173          -0.020           0.985       7.091e-01         -0.5174
 164       5.363e+00      -2.809e+01       9.478e-01           0.220          -0.025           0.975       6.530e-01         -0.3709
 165       5.880e+00      -2.809e+01       8.188e-01           0.268          -0.030           0.963       5.592e-01         -0.2030
 166       6.297e+00      -2.809e+01       6.975e-01           0.294          -0.034           0.955       4.279e-01         -0.0402
 167       6.589e+00      -2.809e+01       6.026e-01           0.331          -0.040           0.943       2.707e-01          0.1607
 168       6.739e+00      -2.809e+01       5.483e-01           0.363          -0.045           0.931       9.322e-02          0.2971
Strip 7
 169       6.940e+00      -2.686e+01       5.092e-01           0.123          -0.036          -0.992       1.071e-01          0.2666
 170       6.781e+00      -2.686e+01       4.952e-01           0.076          -0.028          -0.997       3.135e-01          0.1954
 171       6.474e+00      -2.686e+01       4.805e-01           0.030          -0.021          -0.999       5.009e-01          0.1141
 172       6.036e+00      -2.686e+01       4.718e-01           0.013          -0.019          -1.000       6.597e-01          0.0873
 173       5.493e+00      -2.686e+01       4.717e-01          -0.011          -0.016          -1.000       7.804e-01          0.0813
 174       4.875e+00      -2.686e+01       4.878e-01          -0.040          -0.013          -0.999       8.564e-01          0.1199
 175       4.219e+00      -2.686e+01       5.148e-01          -0.042          -0.013          -0.999       8.821e-01          0.1906
 176       3.563e+00      -2.686e+01       5.310e-01          -0.007          -0.015          -1.000       8.557e-01          0.2464
 177       2.945e+00      -2.686e+01       5.146e-01           0.063          -0.016          -0.998       7.819e-01          0.2318
 178       2.402e+00      -2.686e+01       4.826e-01           0.054          -0.016          -0.998       6.606e-01          0.1816
 179       1.963e+00      -2.686e+01       4.696e-01          -0.003          -0.018          -1.000       5.007e-01          0.1675
 180       1.656e+00      -2.686e+01       4.907e-01          -0.172          -0.024          -0.985       3.173e-01          0.3123
 181       1.498e+00      -2.686e+01       5.450e-01          -0.643          -0.045          -0.764       1.389e-01          0.7889
 182       1.498e+00      -2.686e+01       6.517e-01          -0.875          -0.041           0.482       2.206e-01          0.2048
 183       1.656e+00      -2.686e+01       8.398e-01          -0.698          -0.031           0.715       4.370e-01         -0.5133
 184       1.963e+00      -2.685e+01       1.046e+00          -0.433          -0.020           0.901       5.553e-01         -1.3747
 185       2.402e+00      -2.685e+01       1.190e+00          -0.209          -0.014           0.978       6.743e-01         -1.5339
 186       2.945e+00      -2.685e+01       1.247e+00          -0.013          -0.013           1.000       7.801e-01         -1.2672
 187       3.563e+00      -2.685e+01       1.232e+00           0.057          -0.014           0.998       8.568e-01         -0.9349
 188       4.219e+00      -2.685e+01       1.172e+00           0.125          -0.017           0.992       8.881e-01         -0.7242
 189       4.875e+00      -2.685e+01       1.073e+00           0.173          -0.020           0.985       8.688e-01         -0.5473
 190       5.493e+00      -2.686e+01       9.498e-01           0.220          -0.025           0.975       8.001e-01         -0.3905
 191       6.036e+00      -2.686e+01       8.142e-01           0.268          -0.030           0.963       6.851e-01         -0.2120
 192       6.474e+00      -2.686e+01       6.867e-01           0.294          -0.034           0.955       5.243e-01         -0.0401
 193       6.781e+00      -2.686e+01       5.869e-01           0.331          -0.040           0.943       3.317e-01          0.1679
 194       6.940e+00      -2.686e+01       5.298e-01           0.363          -0.045           0.931       1.142e-01          0.3078
Strip 8
 195       7.170e+00      -2.545e+01       4.867e-01           0.123          -0.036          -0.992       1.284e-01          0.2702
 196       7.003e+00      -2.545e+01       4.720e-01           0.076          -0.028          -0.997       3.758e-01          0.2003
 197       6.679e+00      -2.545e+01       4.565e-01           0.030          -0.021          -0.999       6.005e-01          0.1210
 198       6.216e+00      -2.545e+01       4.473e-01           0.013          -0.019          -1.000       7.909e-01          0.0960
 199       5.642e+00      -2.545e+01       4.472e-01          -0.011          -0.016          -1.000       9.355e-01          0.0920
 200       4.989e+00      -2.545e+01       4.642e-01          -0.040          -0.013          -0.999       1.027e+00          0.1321
 201       4.297e+00      -2.545e+01       4.927e-01          -0.042          -0.013          -0.999       1.057e+00          0.2037
 202       3.604e+00      -2.545e+01       5.098e-01          -0.007          -0.015          -1.000       1.026e+00          0.2604
 203       2.952e+00      -2.545e+01       4.925e-01           0.063          -0.016          -0.998       9.373e-01          0.2482
 204       2.378e+00      -2.545e+01       4.587e-01           0.054          -0.016          -0.998       7.920e-01          0.2026
 205       1.915e+00      -2.545e+01       4.450e-01          -0.003          -0.018          -1.000       6.002e-01          0.1961
 206       1.591e+00      -2.545e+01       4.672e-01          -0.172          -0.024          -0.985       3.803e-01          0.3545
 207       1.424e+00      -2.545e+01       5.246e-01          -0.643          -0.045          -0.764       1.665e-01          0.8259
 208       1.424e+00      -2.545e+01       6.372e-01          -0.875          -0.041           0.482       2.645e-01          0.1278
 209       1.591e+00      -2.544e+01       8.360e-01          -0.698          -0.031           0.715       5.239e-01         -0.5701
 210       1.915e+00      -2.544e+01       1.053e+00          -0.433          -0.020           0.901       6.657e-01         -1.4327
 211       2.378e+00      -2.544e+01       1.205e+00          -0.209          -0.014           0.978       8.083e-01         -1.5854
 212       2.952e+00      -2.544e+01       1.266e+00          -0.013          -0.013           1.000       9.352e-01         -1.3093
 213       3.604e+00      -2.544e+01       1.250e+00           0.057          -0.014           0.998       1.027e+00         -0.9684
 214       4.297e+00      -2.544e+01       1.186e+00           0.125          -0.017           0.992       1.065e+00         -0.7512
 215       4.989e+00      -2.544e+01       1.082e+00           0.173          -0.020           0.985       1.041e+00         -0.5676
 216       5.642e+00      -2.544e+01       9.521e-01           0.220          -0.025           0.975       9.591e-01         -0.4041
 217       6.216e+00      -2.544e+01       8.089e-01           0.268          -0.030           0.963       8.212e-01         -0.2188
 218       6.679e+00      -2.545e+01       6.742e-01           0.294          -0.034           0.955       6.285e-01         -0.0409
 219       7.003e+00      -2.545e+01       5.689e-01           0.331          -0.040           0.943       3.976e-01          0.1715
 220       7.170e+00      -2.545e+01       5.085e-01           0.363          -0.045           0.931       1.369e-01          0.3138
Strip 9
 221       7.429e+00      -2.386e+01       4.616e-01           0.123          -0.036          -0.992       1.513e-01          0.2724
 222       7.252e+00      -2.386e+01       4.459e-01           0.076          -0.028          -0.997       4.429e-01          0.2034
 223       6.908e+00      -2.386e+01       4.295e-01           0.030          -0.021          -0.999       7.077e-01          0.1254
 224       6.418e+00      -2.386e+01       4.197e-01           0.013          -0.019          -1.000       9.321e-01          0.1017
 225       5.809e+00      -2.386e+01       4.197e-01          -0.011          -0.016          -1.000       1.103e+00          0.0990
 226       5.118e+00      -2.386e+01       4.377e-01          -0.040          -0.013          -0.999       1.210e+00          0.1403
 227       4.384e+00      -2.386e+01       4.679e-01          -0.042          -0.013          -0.999       1.246e+00          0.2124
 228       3.650e+00      -2.386e+01       4.860e-01          -0.007          -0.015          -1.000       1.209e+00          0.2697
 229       2.959e+00      -2.386e+01       4.677e-01           0.063          -0.016          -0.998       1.105e+00          0.2593
 230       2.351e+00      -2.386e+01       4.318e-01           0.054          -0.016          -0.998       9.333e-01          0.2168
 231       1.860e+00      -2.386e+01       4.173e-01          -0.003          -0.018          -1.000       7.073e-01          0.2154
 232       1.517e+00      -2.386e+01       4.409e-01          -0.172          -0.024          -0.985       4.482e-01          0.3827
 233       1.340e+00      -2.386e+01       5.017e-01          -0.643          -0.045          -0.764       1.963e-01          0.8492
 234       1.340e+00      -2.386e+01       6.210e-01          -0.875          -0.041           0.482       3.117e-01          0.0728
 235       1.517e+00      -2.386e+01       8.316e-01          -0.698          -0.031           0.715       6.174e-01         -0.6094
 236       1.860e+00      -2.385e+01       1.062e+00          -0.433          -0.020           0.901       7.845e-01         -1.4721
 237       2.351e+00      -2.385e+01       1.223e+00          -0.209          -0.014           0.978       9.526e-01         -1.6199
 238       2.959e+00      -2.385e+01       1.287e+00          -0.013          -0.013           1.000       1.102e+00         -1.3373
 239       3.650e+00      -2.385e+01       1.271e+00           0.057          -0.014           0.998       1.210e+00         -0.9902
 240       4.384e+00      -2.385e+01       1.203e+00           0.125          -0.017           0.992       1.255e+00         -0.7686
 241       5.118e+00      -2.385e+01       1.092e+00           0.173          -0.020           0.985       1.227e+00         -0.5806
 242       5.809e+00      -2.386e+01       9.547e-01           0.220          -0.025           0.975       1.130e+00         -0.4129
 243       6.418e+00      -2.386e+01       8.029e-01           0.268          -0.030           0.963       9.678e-01         -0.2232
 244       6.908e+00      -2.386e+01       6.602e-01           0.294          -0.034           0.955       7.407e-01         -0.0416
 245       7.252e+00      -2.386e+01       5.486e-01           0.331          -0.040           0.943       4.686e-01          0.1737
 246       7.429e+00      -2.386e+01       4.847e-01           0.363          -0.045           0.931       1.613e-01          0.3174
Strip 10
 247       7.714e+00      -2.211e+01       4.338e-01           0.123          -0.036          -0.992       1.758e-01          0.2738
 248       7.526e+00      -2.211e+01       4.172e-01           0.076          -0.028          -0.997       5.146e-01          0.2055
 249       7.161e+00      -2.211e+01       3.998e-01           0.030          -0.021          -0.999       8.223e-01          0.1283
 250       6.640e+00      -2.211e+01       3.894e-01           0.013          -0.019          -1.000       1.083e+00          0.1053
 251       5.994e+00      -2.211e+01       3.894e-01          -0.011          -0.016          -1.000       1.281e+00          0.1036
 252       5.260e+00      -2.211e+01       4.084e-01          -0.040          -0.013          -0.999       1.406e+00          0.1454
 253       4.481e+00      -2.211e+01       4.405e-01          -0.042          -0.013          -0.999       1.448e+00          0.2179
 254       3.701e+00      -2.211e+01       4.598e-01          -0.007          -0.015          -1.000       1.405e+00          0.2756
 255       2.967e+00      -2.211e+01       4.403e-01           0.063          -0.016          -0.998       1.284e+00          0.2662
 256       2.321e+00      -2.211e+01       4.022e-01           0.054          -0.016          -0.998       1.084e+00          0.2256
 257       1.800e+00      -2.211e+01       3.868e-01          -0.003          -0.018          -1.000       8.219e-01          0.2272
 258       1.435e+00      -2.211e+01       4.118e-01          -0.172          -0.024          -0.985       5.208e-01          0.3996
 259       1.248e+00      -2.211e+01       4.764e-01          -0.643          -0.045          -0.764       2.281e-01          0.8625
 260       1.248e+00      -2.211e+01       6.032e-01          -0.875          -0.041           0.482       3.622e-01          0.0388
 261       1.435e+00      -2.211e+01       8.268e-01          -0.698          -0.031           0.715       7.174e-01         -0.6332
 262       1.800e+00      -2.210e+01       1.072e+00          -0.433          -0.020           0.901       9.115e-01         -1.4960
 263       2.321e+00      -2.210e+01       1.243e+00          -0.209          -0.014           0.978       1.107e+00         -1.6408
 264       2.967e+00      -2.210e+01       1.310e+00          -0.013          -0.013           1.000       1.281e+00         -1.3541
 265       3.701e+00      -2.210e+01       1.293e+00           0.057          -0.014           0.998       1.406e+00         -1.0033
 266       4.481e+00      -2.210e+01       1.221e+00           0.125          -0.017           0.992       1.458e+00         -0.7790
 267       5.260e+00      -2.210e+01       1.104e+00           0.173          -0.020           0.985       1.426e+00         -0.5884
 268       5.994e+00      -2.211e+01       9.575e-01           0.220          -0.025           0.975       1.313e+00         -0.4180
 269       6.640e+00      -2.211e+01       7.963e-01           0.268          -0.030           0.963       1.125e+00         -0.2257
 270       7.161e+00      -2.211e+01       6.448e-01           0.294          -0.034           0.955       8.606e-01         -0.0418
 271       7.526e+00      -2.211e+01       5.263e-01           0.331          -0.040           0.943       5.444e-01          0.1753
 272       7.714e+00      -2.211e+01       4.583e-01           0.363          -0.045           0.931       1.875e-01          0.3199
Strip 11
 273       8.024e+00      -2.021e+01       4.037e-01           0.123          -0.036          -0.992       2.017e-01          0.2748
 274       7.824e+00      -2.021e+01       3.860e-01           0.076          -0.028          -0.997       5.906e-01          0.2068
 275       7.436e+00      -2.021e+01       3.675e-01           0.030          -0.021          -0.999       9.437e-01          0.1301
 276       6.882e+00      -2.021e+01       3.564e-01           0.013          -0.019          -1.000       1.243e+00          0.1075
 277       6.195e+00      -2.021e+01       3.564e-01          -0.011          -0.016          -1.000       1.470e+00          0.1062
 278       5.414e+00      -2.021e+01       3.767e-01          -0.040          -0.013          -0.999       1.613e+00          0.1484
 279       4.585e+00      -2.021e+01       4.108e-01          -0.042          -0.013          -0.999       1.662e+00          0.2210
 280       3.757e+00      -2.021e+01       4.313e-01          -0.007          -0.015          -1.000       1.612e+00          0.2789
 281       2.976e+00      -2.021e+01       4.105e-01           0.063          -0.016          -0.998       1.473e+00          0.2699
 282       2.289e+00      -2.021e+01       3.701e-01           0.054          -0.016          -0.998       1.245e+00          0.2302
 283       1.735e+00      -2.021e+01       3.537e-01          -0.003          -0.018          -1.000       9.432e-01          0.2330
 284       1.347e+00      -2.021e+01       3.803e-01          -0.172          -0.024          -0.985       5.977e-01          0.4076
 285       1.147e+00      -2.021e+01       4.490e-01          -0.643          -0.045          -0.764       2.617e-01          0.8684
 286       1.147e+00      -2.021e+01       5.838e-01          -0.875          -0.041           0.482       4.156e-01          0.0235
 287       1.347e+00      -2.021e+01       8.216e-01          -0.698          -0.031           0.715       8.233e-01         -0.6439
 288       1.735e+00      -2.020e+01       1.082e+00          -0.433          -0.020           0.901       1.046e+00         -1.5070
 289       2.289e+00      -2.020e+01       1.264e+00          -0.209          -0.014           0.978       1.270e+00         -1.6507
 290       2.976e+00      -2.020e+01       1.336e+00          -0.013          -0.013           1.000       1.470e+00         -1.3623
 291       3.757e+00      -2.020e+01       1.318e+00           0.057          -0.014           0.998       1.614e+00         -1.0099
 292       4.585e+00      -2.020e+01       1.241e+00           0.125          -0.017           0.992       1.673e+00         -0.7842
 293       5.414e+00      -2.020e+01       1.116e+00           0.173          -0.020           0.985       1.637e+00         -0.5922
 294       6.195e+00      -2.020e+01       9.606e-01           0.220          -0.025           0.975       1.507e+00         -0.4203
 295       6.882e+00      -2.021e+01       7.892e-01           0.268          -0.030           0.963       1.290e+00         -0.2265
 296       7.436e+00      -2.021e+01       6.280e-01           0.294          -0.034           0.955       9.876e-01         -0.0414
 297       7.824e+00      -2.021e+01       5.020e-01           0.331          -0.040           0.943       6.247e-01          0.1767
 298       8.024e+00      -2.021e+01       4.297e-01           0.363          -0.045           0.931       2.151e-01          0.3218
Strip 12
 299       8.356e+00      -1.817e+01       3.713e-01           0.123          -0.036          -0.992       2.289e-01          0.2753
 300       8.143e+00      -1.817e+01       3.525e-01           0.076          -0.028          -0.997       6.702e-01          0.2075
 301       7.731e+00      -1.817e+01       3.328e-01           0.030          -0.021          -0.999       1.071e+00          0.1312
 302       7.142e+00      -1.817e+01       3.210e-01           0.013          -0.019          -1.000       1.410e+00          0.1087
 303       6.410e+00      -1.817e+01       3.210e-01          -0.011          -0.016          -1.000       1.668e+00          0.1075
 304       5.580e+00      -1.817e+01       3.426e-01          -0.040          -0.013          -0.999       1.831e+00          0.1497
 305       4.698e+00      -1.817e+01       3.789e-01          -0.042          -0.013          -0.999       1.886e+00          0.2223
 306       3.816e+00      -1.817e+01       4.007e-01          -0.007          -0.015          -1.000       1.829e+00          0.2801
 307       2.985e+00      -1.817e+01       3.787e-01           0.063          -0.016          -0.998       1.672e+00          0.2711
 308       2.254e+00      -1.817e+01       3.356e-01           0.054          -0.016          -0.998       1.412e+00          0.2313
 309       1.665e+00      -1.817e+01       3.181e-01          -0.003          -0.018          -1.000       1.070e+00          0.2340
 310       1.252e+00      -1.817e+01       3.465e-01          -0.172          -0.024          -0.985       6.783e-01          0.4082
 311       1.040e+00      -1.817e+01       4.195e-01          -0.643          -0.045          -0.764       2.970e-01          0.8685
 312       1.040e+00      -1.817e+01       5.630e-01          -0.875          -0.041           0.482       4.716e-01          0.0240
 313       1.252e+00      -1.817e+01       8.160e-01          -0.698          -0.031           0.715       9.342e-01         -0.6436
 314       1.665e+00      -1.816e+01       1.093e+00          -0.433          -0.020           0.901       1.187e+00         -1.5073
 315       2.254e+00      -1.816e+01       1.286e+00          -0.209          -0.014           0.978       1.442e+00         -1.6519
 316       2.985e+00      -1.816e+01       1.363e+00          -0.013          -0.013           1.000       1.668e+00         -1.3638
 317       3.816e+00      -1.816e+01       1.344e+00           0.057          -0.014           0.998       1.832e+00         -1.0112
 318       4.698e+00      -1.816e+01       1.262e+00           0.125          -0.017           0.992       1.899e+00         -0.7854
 319       5.580e+00      -1.816e+01       1.130e+00           0.173          -0.020           0.985       1.857e+00         -0.5930
 320       6.410e+00      -1.817e+01       9.639e-01           0.220          -0.025           0.975       1.710e+00         -0.4205
 321       7.142e+00      -1.817e+01       7.815e-01           0.268          -0.030           0.963       1.464e+00         -0.2261
 322       7.731e+00      -1.817e+01       6.101e-01           0.294          -0.034           0.955       1.121e+00         -0.0405
 323       8.143e+00      -1.817e+01       4.759e-01           0.331          -0.040           0.943       7.089e-01          0.1781
 324       8.356e+00      -1.817e+01       3.991e-01           0.363          -0.045           0.931       2.441e-01          0.3234
Strip 13
 325       8.709e+00      -1.601e+01       3.370e-01           0.123          -0.036          -0.992       2.571e-01          0.2761
 326       8.483e+00      -1.601e+01       3.170e-01           0.076          -0.028          -0.997       7.525e-01          0.2082
 327       8.043e+00      -1.601e+01       2.961e-01           0.030          -0.021          -0.999       1.202e+00          0.1317
 328       7.417e+00      -1.601e+01       2.835e-01           0.013          -0.019          -1.000       1.584e+00          0.1090
 329       6.639e+00      -1.601e+01       2.835e-01          -0.011          -0.016          -1.000       1.873e+00          0.1076
 330       5.755e+00      -1.601e+01       3.065e-01          -0.040          -0.013          -0.999       2.056e+00          0.1497
 331       4.817e+00      -1.601e+01       3.451e-01          -0.042          -0.013          -0.999       2.117e+00          0.2221
 332       3.879e+00      -1.601e+01       3.683e-01          -0.007          -0.015          -1.000       2.054e+00          0.2796
 333       2.995e+00      -1.601e+01       3.448e-01           0.063          -0.016          -0.998       1.877e+00          0.2703
 334       2.217e+00      -1.601e+01       2.990e-01           0.054          -0.016          -0.998       1.586e+00          0.2298
 335       1.591e+00      -1.601e+01       2.804e-01          -0.003          -0.018          -1.000       1.202e+00          0.2311
 336       1.152e+00      -1.601e+01       3.106e-01          -0.172          -0.024          -0.985       7.616e-01          0.4029
 337       9.254e-01      -1.601e+01       3.883e-01          -0.643          -0.045          -0.764       3.335e-01          0.8639
 338       9.254e-01      -1.600e+01       5.409e-01          -0.875          -0.041           0.482       5.296e-01          0.0376
 339       1.152e+00      -1.600e+01       8.101e-01          -0.698          -0.031           0.715       1.049e+00         -0.6342
 340       1.591e+00      -1.600e+01       1.105e+00          -0.433          -0.020           0.901       1.333e+00         -1.4990
 341       2.217e+00      -1.600e+01       1.311e+00          -0.209          -0.014           0.978       1.619e+00         -1.6458
 342       2.995e+00      -1.600e+01       1.392e+00          -0.013          -0.013           1.000       1.873e+00         -1.3597
 343       3.879e+00      -1.600e+01       1.371e+00           0.057          -0.014           0.998       2.057e+00         -1.0086
 344       4.817e+00      -1.600e+01       1.285e+00           0.125          -0.017           0.992       2.132e+00         -0.7833
 345       5.755e+00      -1.600e+01       1.144e+00           0.173          -0.020           0.985       2.085e+00         -0.5912
 346       6.639e+00      -1.600e+01       9.674e-01           0.220          -0.025           0.975       1.920e+00         -0.4190
 347       7.417e+00      -1.600e+01       7.734e-01           0.268          -0.030           0.963       1.644e+00         -0.2246
 348       8.043e+00      -1.600e+01       5.910e-01           0.294          -0.034           0.955       1.258e+00         -0.0389
 349       8.483e+00      -1.601e+01       4.483e-01           0.331          -0.040           0.943       7.960e-01          0.1796
 350       8.709e+00      -1.601e+01       3.665e-01           0.363          -0.045           0.931       2.741e-01          0.3249
Strip 14
 351       9.079e+00      -1.373e+01       3.010e-01           0.123          -0.036          -0.992       2.858e-01          0.2765
 352       8.839e+00      -1.373e+01       2.797e-01           0.076          -0.028          -0.997       8.366e-01          0.2086
 353       8.372e+00      -1.373e+01       2.574e-01           0.030          -0.021          -0.999       1.337e+00          0.1318
 354       7.706e+00      -1.373e+01       2.441e-01           0.013          -0.019          -1.000       1.761e+00          0.1088
 355       6.879e+00      -1.373e+01       2.441e-01          -0.011          -0.016          -1.000       2.083e+00          0.1070
 356       5.940e+00      -1.373e+01       2.685e-01          -0.040          -0.013          -0.999       2.285e+00          0.1487
 357       4.942e+00      -1.373e+01       3.096e-01          -0.042          -0.013          -0.999       2.354e+00          0.2208
 358       3.945e+00      -1.373e+01       3.342e-01          -0.007          -0.015          -1.000       2.283e+00          0.2779
 359       3.006e+00      -1.373e+01       3.093e-01           0.063          -0.016          -0.998       2.087e+00          0.2678
 360       2.179e+00      -1.373e+01       2.605e-01           0.054          -0.016          -0.998       1.763e+00          0.2260
 361       1.513e+00      -1.373e+01       2.408e-01          -0.003          -0.018          -1.000       1.336e+00          0.2249
 362       1.046e+00      -1.373e+01       2.729e-01          -0.172          -0.024          -0.985       8.467e-01          0.3926
 363       8.055e-01      -1.373e+01       3.555e-01          -0.643          -0.045          -0.764       3.708e-01          0.8550
 364       8.055e-01      -1.373e+01       5.177e-01          -0.875          -0.041           0.482       5.887e-01          0.0620
 365       1.046e+00      -1.373e+01       8.038e-01          -0.698          -0.031           0.715       1.166e+00         -0.6170
 366       1.513e+00      -1.373e+01       1.117e+00          -0.433          -0.020           0.901       1.482e+00         -1.4832
 367       2.179e+00      -1.373e+01       1.336e+00          -0.209          -0.014           0.978       1.799e+00         -1.6335
 368       3.006e+00      -1.373e+01       1.423e+00          -0.013          -0.013           1.000       2.082e+00         -1.3509
 369       3.945e+00      -1.373e+01       1.401e+00           0.057          -0.014           0.998       2.286e+00         -1.0023
 370       4.942e+00      -1.373e+01       1.309e+00           0.125          -0.017           0.992       2.370e+00         -0.7784
 371       5.940e+00      -1.373e+01       1.158e+00           0.173          -0.020           0.985       2.318e+00         -0.5874
 372       6.879e+00      -1.373e+01       9.711e-01           0.220          -0.025           0.975       2.135e+00         -0.4158
 373       7.706e+00      -1.373e+01       7.648e-01           0.268          -0.030           0.963       1.828e+00         -0.2220
 374       8.372e+00      -1.373e+01       5.709e-01           0.294          -0.034           0.955       1.399e+00         -0.0369
 375       8.839e+00      -1.373e+01       4.193e-01           0.331          -0.040           0.943       8.848e-01          0.1812
 376       9.079e+00      -1.373e+01       3.324e-01           0.363          -0.045           0.931       3.047e-01          0.3264
Strip 15
 377       9.465e+00      -1.137e+01       2.635e-01           0.123          -0.036          -0.992       3.146e-01          0.2768
 378       9.210e+00      -1.137e+01       2.409e-01           0.076          -0.028          -0.997       9.210e-01          0.2088
 379       8.714e+00      -1.137e+01       2.172e-01           0.030          -0.021          -0.999       1.472e+00          0.1317
 380       8.007e+00      -1.137e+01       2.031e-01           0.013          -0.019          -1.000       1.938e+00          0.1080
 381       7.129e+00      -1.137e+01       2.030e-01          -0.011          -0.016          -1.000       2.293e+00          0.1057
 382       6.131e+00      -1.137e+01       2.290e-01          -0.040          -0.013          -0.999       2.516e+00          0.1469
 383       5.073e+00      -1.137e+01       2.726e-01          -0.042          -0.013          -0.999       2.591e+00          0.2185
 384       4.014e+00      -1.137e+01       2.988e-01          -0.007          -0.015          -1.000       2.514e+00          0.2752
 385       3.017e+00      -1.137e+01       2.722e-01           0.063          -0.016          -0.998       2.297e+00          0.2641
 386       2.139e+00      -1.137e+01       2.205e-01           0.054          -0.016          -0.998       1.941e+00          0.2203
 387       1.431e+00      -1.137e+01       1.996e-01          -0.003          -0.018          -1.000       1.471e+00          0.2160
 388       9.358e-01      -1.137e+01       2.336e-01          -0.172          -0.024          -0.985       9.322e-01          0.3778
 389       6.806e-01      -1.137e+01       3.213e-01          -0.643          -0.045          -0.764       4.082e-01          0.8421
 390       6.806e-01      -1.137e+01       4.935e-01          -0.875          -0.041           0.482       6.481e-01          0.0956
 391       9.358e-01      -1.136e+01       7.974e-01          -0.698          -0.031           0.715       1.284e+00         -0.5932
 392       1.431e+00      -1.136e+01       1.130e+00          -0.433          -0.020           0.901       1.631e+00         -1.4607
 393       2.139e+00      -1.136e+01       1.362e+00          -0.209          -0.014           0.978       1.981e+00         -1.6157
 394       3.017e+00      -1.136e+01       1.454e+00          -0.013          -0.013           1.000       2.292e+00         -1.3378
 395       4.014e+00      -1.136e+01       1.431e+00           0.057          -0.014           0.998       2.517e+00         -0.9927
 396       5.073e+00      -1.136e+01       1.333e+00           0.125          -0.017           0.992       2.609e+00         -0.7709
 397       6.131e+00      -1.136e+01       1.174e+00           0.173          -0.020           0.985       2.552e+00         -0.5814
 398       7.129e+00      -1.136e+01       9.750e-01           0.220          -0.025           0.975       2.350e+00         -0.4111
 399       8.007e+00      -1.136e+01       7.559e-01           0.268          -0.030           0.963       2.012e+00         -0.2184
 400       8.714e+00      -1.137e+01       5.501e-01           0.294          -0.034           0.955       1.540e+00         -0.0341
 401       9.210e+00      -1.137e+01       3.890e-01           0.332          -0.040           0.943       9.741e-01          0.1832
 402       9.465e+00      -1.137e+01       2.968e-01           0.363          -0.045           0.931       3.354e-01          0.3280
Strip 16
 403       9.863e+00      -8.922e+00       2.247e-01           0.123          -0.036          -0.992       3.431e-01          0.2774
 404       9.593e+00      -8.922e+00       2.008e-01           0.076          -0.028          -0.997       1.004e+00          0.2090
 405       9.067e+00      -8.922e+00       1.757e-01           0.030          -0.021          -0.999       1.605e+00          0.1313
 406       8.317e+00      -8.922e+00       1.607e-01           0.013          -0.019          -1.000       2.114e+00          0.1070
 407       7.387e+00      -8.922e+00       1.607e-01          -0.011          -0.016          -1.000       2.500e+00          0.1039
 408       6.330e+00      -8.922e+00       1.882e-01          -0.040          -0.013          -0.999       2.744e+00          0.1444
 409       5.207e+00      -8.922e+00       2.344e-01          -0.042          -0.013          -0.999       2.826e+00          0.2155
 410       4.085e+00      -8.922e+00       2.621e-01          -0.007          -0.015          -1.000       2.742e+00          0.2715
 411       3.028e+00      -8.922e+00       2.340e-01           0.063          -0.016          -0.998       2.505e+00          0.2591
 412       2.097e+00      -8.922e+00       1.792e-01           0.054          -0.016          -0.998       2.117e+00          0.2130
 413       1.348e+00      -8.922e+00       1.570e-01          -0.003          -0.018          -1.000       1.604e+00          0.2046
 414       8.222e-01      -8.922e+00       1.931e-01          -0.172          -0.024          -0.985       1.017e+00          0.3589
 415       5.516e-01      -8.922e+00       2.860e-01          -0.643          -0.045          -0.764       4.452e-01          0.8251
 416       5.516e-01      -8.921e+00       4.686e-01          -0.875          -0.041           0.482       7.068e-01          0.1368
 417       8.222e-01      -8.921e+00       7.907e-01          -0.698          -0.031           0.715       1.400e+00         -0.5634
 418       1.348e+00      -8.920e+00       1.143e+00          -0.433          -0.020           0.901       1.779e+00         -1.4322
 419       2.097e+00      -8.919e+00       1.389e+00          -0.209          -0.014           0.978       2.160e+00         -1.5925
 420       3.028e+00      -8.919e+00       1.487e+00          -0.013          -0.013           1.000       2.500e+00         -1.3205
 421       4.085e+00      -8.919e+00       1.462e+00           0.057          -0.014           0.998       2.745e+00         -0.9798
 422       5.207e+00      -8.919e+00       1.359e+00           0.125          -0.017           0.992       2.845e+00         -0.7606
 423       6.330e+00      -8.920e+00       1.190e+00           0.173          -0.020           0.985       2.783e+00         -0.5732
 424       7.387e+00      -8.920e+00       9.789e-01           0.220          -0.025           0.975       2.563e+00         -0.4045
 425       8.317e+00      -8.921e+00       7.467e-01           0.268          -0.030           0.963       2.194e+00         -0.2134
 426       9.067e+00      -8.921e+00       5.285e-01           0.294          -0.034           0.955       1.679e+00         -0.0305
 427       9.593e+00      -8.922e+00       3.578e-01           0.332          -0.040           0.943       1.062e+00          0.1857
 428       9.863e+00      -8.922e+00       2.600e-01           0.363          -0.045           0.931       3.657e-01          0.3299
Strip 17
 429       1.027e+01      -6.417e+00       1.850e-01           0.123          -0.036          -0.992       3.707e-01          0.2781
 430       9.985e+00      -6.417e+00       1.597e-01           0.076          -0.028          -0.997       1.085e+00          0.2093
 431       9.429e+00      -6.417e+00       1.331e-01           0.030          -0.021          -0.999       1.734e+00          0.1309
 432       8.636e+00      -6.417e+00       1.173e-01           0.013          -0.019          -1.000       2.284e+00          0.1057
 433       7.651e+00      -6.417e+00       1.172e-01          -0.011          -0.016          -1.000       2.702e+00          0.1017
 434       6.533e+00      -6.417e+00       1.463e-01          -0.040          -0.013          -0.999       2.965e+00          0.1415
 435       5.345e+00      -6.417e+00       1.952e-01          -0.042          -0.013          -0.999       3.053e+00          0.2119
 436       4.158e+00      -6.417e+00       2.246e-01          -0.007          -0.015          -1.000       2.962e+00          0.2672
 437       3.039e+00      -6.417e+00       1.948e-01           0.063          -0.016          -0.998       2.707e+00          0.2533
 438       2.055e+00      -6.417e+00       1.368e-01           0.054          -0.016          -0.998       2.287e+00          0.2043
 439       1.262e+00      -6.417e+00       1.133e-01          -0.003          -0.018          -1.000       1.733e+00          0.1909
 440       7.057e-01      -6.417e+00       1.515e-01          -0.172          -0.024          -0.985       1.098e+00          0.3361
 441       4.194e-01      -6.417e+00       2.499e-01          -0.643          -0.045          -0.764       4.810e-01          0.8038
 442       4.194e-01      -6.416e+00       4.430e-01          -0.875          -0.041           0.482       7.637e-01          0.1845
 443       7.057e-01      -6.416e+00       7.838e-01          -0.698          -0.031           0.715       1.513e+00         -0.5279
 444       1.262e+00      -6.415e+00       1.157e+00          -0.433          -0.020           0.901       1.922e+00         -1.3977
 445       2.055e+00      -6.415e+00       1.417e+00          -0.209          -0.014           0.978       2.334e+00         -1.5639
 446       3.039e+00      -6.414e+00       1.521e+00          -0.013          -0.013           1.000       2.701e+00         -1.2985
 447       4.158e+00      -6.415e+00       1.494e+00           0.057          -0.014           0.998       2.966e+00         -0.9630
 448       5.345e+00      -6.415e+00       1.385e+00           0.125          -0.017           0.992       3.074e+00         -0.7470
 449       6.533e+00      -6.415e+00       1.206e+00           0.173          -0.020           0.985       3.007e+00         -0.5620
 450       7.651e+00      -6.415e+00       9.830e-01           0.220          -0.025           0.975       2.769e+00         -0.3956
 451       8.636e+00      -6.416e+00       7.373e-01           0.268          -0.030           0.963       2.371e+00         -0.2067
 452       9.429e+00      -6.416e+00       5.064e-01           0.294          -0.034           0.955       1.814e+00         -0.0257
 453       9.985e+00      -6.416e+00       3.258e-01           0.332          -0.040           0.943       1.148e+00          0.1889
 454       1.027e+01      -6.417e+00       2.223e-01           0.363          -0.045           0.931       3.952e-01          0.3324
Strip 18
 455       1.069e+01      -3.868e+00       1.446e-01           0.123          -0.036          -0.992       3.969e-01          0.2790
 456       1.038e+01      -3.868e+00       1.178e-01           0.076          -0.028          -0.997       1.162e+00          0.2099
 457       9.798e+00      -3.868e+00       8.981e-02           0.030          -0.021          -0.999       1.856e+00          0.1307
 458       8.960e+00      -3.868e+00       7.305e-02           0.013          -0.019          -1.000       2.445e+00          0.1045
 459       7.921e+00      -3.868e+00       7.301e-02          -0.011          -0.016          -1.000       2.892e+00          0.0995
 460       6.740e+00      -3.868e+00       1.037e-01          -0.040          -0.013          -0.999       3.174e+00          0.1384
 461       5.486e+00      -3.868e+00       1.554e-01          -0.042          -0.013          -0.999       3.269e+00          0.2081
 462       4.232e+00      -3.868e+00       1.863e-01          -0.007          -0.015          -1.000       3.171e+00          0.2626
 463       3.051e+00      -3.868e+00       1.550e-01           0.063          -0.016          -0.998       2.898e+00          0.2469
 464       2.012e+00      -3.868e+00       9.369e-02           0.054          -0.016          -0.998       2.448e+00          0.1948
 465       1.174e+00      -3.868e+00       6.892e-02          -0.003          -0.018          -1.000       1.855e+00          0.1756
 466       5.871e-01      -3.868e+00       1.092e-01          -0.172          -0.024          -0.985       1.176e+00          0.3099
 467       2.849e-01      -3.868e+00       2.131e-01          -0.643          -0.045          -0.764       5.150e-01          0.7780
 468       2.849e-01      -3.867e+00       4.170e-01          -0.875          -0.041           0.482       8.175e-01          0.2380
 469       5.871e-01      -3.867e+00       7.768e-01          -0.698          -0.031           0.715       1.619e+00         -0.4866
 470       1.174e+00      -3.867e+00       1.171e+00          -0.433          -0.020           0.901       2.058e+00         -1.3563
 471       2.012e+00      -3.866e+00       1.446e+00          -0.209          -0.014           0.978       2.499e+00         -1.5288
 472       3.051e+00      -3.866e+00       1.555e+00          -0.013          -0.013           1.000       2.891e+00         -1.2711
 473       4.232e+00      -3.866e+00       1.527e+00           0.057          -0.014           0.998       3.175e+00         -0.9416
 474       5.486e+00      -3.866e+00       1.411e+00           0.125          -0.017           0.992       3.291e+00         -0.7289
 475       6.740e+00      -3.867e+00       1.223e+00           0.173          -0.020           0.985       3.219e+00         -0.5468
 476       7.921e+00      -3.867e+00       9.871e-01           0.220          -0.025           0.975       2.964e+00         -0.3829
 477       8.960e+00      -3.867e+00       7.277e-01           0.268          -0.030           0.963       2.538e+00         -0.1968
 478       9.798e+00      -3.867e+00       4.840e-01           0.294          -0.034           0.955       1.942e+00         -0.0186
 479       1.038e+01      -3.867e+00       2.933e-01           0.332          -0.040           0.943       1.229e+00          0.1935
 480       1.069e+01      -3.868e+00       1.840e-01           0.363          -0.045           0.931       4.230e-01          0.3357
Strip 19
 481       1.111e+01      -1.292e+00       1.037e-01           0.123          -0.036          -0.992       4.210e-01          0.2807
 482       1.079e+01      -1.292e+00       7.556e-02           0.076          -0.028          -0.997       1.232e+00          0.2119
 483       1.017e+01      -1.292e+00       4.605e-02           0.030          -0.021          -0.999       1.969e+00          0.1325
 484       9.288e+00      -1.292e+00       2.839e-02           0.013          -0.019          -1.000       2.593e+00          0.1052
 485       8.193e+00      -1.292e+00       2.835e-02          -0.011          -0.016          -1.000       3.068e+00          0.0983
 486       6.949e+00      -1.292e+00       6.071e-02          -0.040          -0.013          -0.999       3.366e+00          0.1353
 487       5.628e+00      -1.292e+00       1.151e-01          -0.042          -0.013          -0.999       3.467e+00          0.2039
 488       4.307e+00      -1.292e+00       1.477e-01          -0.007          -0.015          -1.000       3.363e+00          0.2577
 489       3.063e+00      -1.292e+00       1.147e-01           0.063          -0.016          -0.998       3.073e+00          0.2410
 490       1.968e+00      -1.292e+00       5.014e-02           0.054          -0.016          -0.998       2.597e+00          0.1865
 491       1.086e+00      -1.292e+00       2.403e-02          -0.003          -0.018          -1.000       1.968e+00          0.1616
 492       4.674e-01      -1.292e+00       6.647e-02          -0.172          -0.024          -0.985       1.247e+00          0.2826
 493       1.489e-01      -1.292e+00       1.759e-01          -0.643          -0.045          -0.764       5.462e-01          0.7478
 494       1.489e-01      -1.292e+00       3.907e-01          -0.875          -0.041           0.481       8.671e-01          0.2969
 495       4.674e-01      -1.292e+00       7.697e-01          -0.698          -0.031           0.715       1.717e+00         -0.4358
 496       1.086e+00      -1.292e+00       1.185e+00          -0.433          -0.020           0.901       2.182e+00         -1.3022
 497       1.968e+00      -1.292e+00       1.474e+00          -0.209          -0.014           0.978       2.650e+00         -1.4833
 498       3.063e+00      -1.292e+00       1.589e+00          -0.013          -0.013           1.000       3.066e+00         -1.2367
 499       4.307e+00      -1.292e+00       1.560e+00           0.057          -0.014           0.998       3.368e+00         -0.9151
 500       5.628e+00      -1.292e+00       1.438e+00           0.125          -0.017           0.992       3.491e+00         -0.7053
 501       6.949e+00      -1.292e+00       1.239e+00           0.173          -0.020           0.985       3.414e+00         -0.5245
 502       8.193e+00      -1.292e+00       9.913e-01           0.220          -0.025           0.975       3.144e+00         -0.3617
 503       9.288e+00      -1.292e+00       7.181e-01           0.268          -0.030           0.963       2.692e+00         -0.1784
 504       1.017e+01      -1.292e+00       4.613e-01           0.294          -0.034           0.955       2.060e+00         -0.0050
 505       1.079e+01      -1.292e+00       2.604e-01           0.332          -0.040           0.943       1.303e+00          0.2020
 506       1.111e+01      -1.292e+00       1.453e-01           0.363          -0.045           0.931       4.486e-01          0.3410
Strip 20
 507       1.111e+01       1.292e+00       1.037e-01           0.123           0.036          -0.992       4.210e-01          0.2807
 508       1.079e+01       1.292e+00       7.556e-02           0.076           0.028          -0.997       1.232e+00          0.2119
 509       1.017e+01       1.292e+00       4.605e-02           0.030           0.021          -0.999       1.969e+00          0.1325
 510       9.288e+00       1.292e+00       2.839e-02           0.013           0.019          -1.000       2.593e+00          0.1052
 511       8.193e+00       1.292e+00       2.835e-02          -0.011           0.016          -1.000       3.068e+00          0.0983
 512       6.949e+00       1.292e+00       6.071e-02          -0.040           0.013          -0.999       3.366e+00          0.1353
 513       5.628e+00       1.292e+00       1.151e-01          -0.042           0.013          -0.999       3.467e+00          0.2039
 514       4.307e+00       1.292e+00       1.477e-01          -0.007           0.015          -1.000       3.363e+00          0.2577
 515       3.063e+00       1.292e+00       1.147e-01           0.063           0.016          -0.998       3.073e+00          0.2410
 516       1.968e+00       1.292e+00       5.014e-02           0.054           0.016          -0.998       2.597e+00          0.1865
 517       1.086e+00       1.292e+00       2.403e-02          -0.003           0.018          -1.000       1.968e+00          0.1616
 518       4.674e-01       1.292e+00       6.647e-02          -0.172           0.024          -0.985       1.247e+00          0.2826
 519       1.489e-01       1.292e+00       1.759e-01          -0.643           0.045          -0.764       5.462e-01          0.7478
 520       1.489e-01       1.292e+00       3.907e-01          -0.875           0.041           0.481       8.671e-01          0.2969
 521       4.674e-01       1.292e+00       7.697e-01          -0.698           0.031           0.715       1.717e+00         -0.4358
 522       1.086e+00       1.292e+00       1.185e+00          -0.433           0.020           0.901       2.182e+00         -1.3022
 523       1.968e+00       1.292e+00       1.474e+00          -0.209           0.014           0.978       2.650e+00         -1.4833
 524       3.063e+00       1.292e+00       1.589e+00          -0.013           0.013           1.000       3.066e+00         -1.2367
 525       4.307e+00       1.292e+00       1.560e+00           0.057           0.014           0.998       3.368e+00         -0.9151
 526       5.628e+00       1.292e+00       1.438e+00           0.125           0.017           0.992       3.491e+00         -0.7053
 527       6.949e+00       1.292e+00       1.239e+00           0.173           0.020           0.985       3.414e+00         -0.5245
 528       8.193e+00       1.292e+00       9.913e-01           0.220           0.025           0.975       3.144e+00         -0.3617
 529       9.288e+00       1.292e+00       7.181e-01           0.268           0.030           0.963       2.692e+00         -0.1784
 530       1.017e+01       1.292e+00       4.613e-01           0.294           0.034           0.955       2.060e+00         -0.0050
 531       1.079e+01       1.292e+00       2.604e-01           0.332           0.040           0.943       1.303e+00          0.2020
 532       1.111e+01       1.292e+00       1.453e-01           0.363           0.045           0.931       4.486e-01          0.3410
Strip 21
 533       1.069e+01       3.868e+00       1.446e-01           0.123           0.036          -0.992       3.969e-01          0.2790
 534       1.038e+01       3.868e+00       1.178e-01           0.076           0.028          -0.997       1.162e+00          0.2099
 535       9.798e+00       3.868e+00       8.981e-02           0.030           0.021          -0.999       1.856e+00          0.1307
 536       8.960e+00       3.868e+00       7.305e-02           0.013           0.019          -1.000       2.445e+00          0.1045
 537       7.921e+00       3.868e+00       7.301e-02          -0.011           0.016          -1.000       2.892e+00          0.0995
 538       6.740e+00       3.868e+00       1.037e-01          -0.040           0.013          -0.999       3.174e+00          0.1384
 539       5.486e+00       3.868e+00       1.554e-01          -0.042           0.013          -0.999       3.269e+00          0.2081
 540       4.232e+00       3.868e+00       1.863e-01          -0.007           0.015          -1.000       3.171e+00          0.2626
 541       3.051e+00       3.868e+00       1.550e-01           0.063           0.016          -0.998       2.898e+00          0.2469
 542       2.012e+00       3.868e+00       9.369e-02           0.054           0.016          -0.998       2.448e+00          0.1948
 543       1.174e+00       3.868e+00       6.892e-02          -0.003           0.018          -1.000       1.855e+00          0.1756
 544       5.871e-01       3.868e+00       1.092e-01          -0.172           0.024          -0.985       1.176e+00          0.3099
 545       2.849e-01       3.868e+00       2.131e-01          -0.643           0.045          -0.764       5.150e-01          0.7780
 546       2.849e-01       3.867e+00       4.170e-01          -0.875           0.041           0.482       8.175e-01          0.2380
 547       5.871e-01       3.867e+00       7.768e-01          -0.698           0.031           0.715       1.619e+00         -0.4866
 548       1.174e+00       3.867e+00       1.171e+00          -0.433           0.020           0.901       2.058e+00         -1.3563
 549       2.012e+00       3.866e+00       1.446e+00          -0.209           0.014           0.978       2.499e+00         -1.5288
 550       3.051e+00       3.866e+00       1.555e+00          -0.013           0.013           1.000       2.891e+00         -1.2711
 551       4.232e+00       3.866e+00       1.527e+00           0.057           0.014           0.998       3.175e+00         -0.9416
 552       5.486e+00       3.866e+00       1.411e+00           0.125           0.017           0.992       3.291e+00         -0.7289
 553       6.740e+00       3.867e+00       1.223e+00           0.173           0.020           0.985       3.219e+00         -0.5468
 554       7.921e+00       3.867e+00       9.871e-01           0.220           0.025           0.975       2.964e+00         -0.3829
 555       8.960e+00       3.867e+00       7.277e-01           0.268           0.030           0.963       2.538e+00         -0.1968
 556       9.798e+00       3.867e+00       4.840e-01           0.294           0.034           0.955       1.942e+00         -0.0186
 557       1.038e+01       3.867e+00       2.933e-01           0.332           0.040           0.943       1.229e+00          0.1935
 558       1.069e+01       3.868e+00       1.840e-01           0.363           0.045           0.931       4.230e-01          0.3357
Strip 22
 559       1.027e+01       6.417e+00       1.850e-01           0.123           0.036          -0.992       3.707e-01          0.2781
 560       9.985e+00       6.417e+00       1.597e-01           0.076           0.028          -0.997       1.085e+00          0.2093
 561       9.429e+00       6.417e+00       1.331e-01           0.030           0.021          -0.999       1.734e+00          0.1309
 562       8.636e+00       6.417e+00       1.173e-01           0.013           0.019          -1.000       2.284e+00          0.1057
 563       7.651e+00       6.417e+00       1.172e-01          -0.011           0.016          -1.000       2.702e+00          0.1017
 564       6.533e+00       6.417e+00       1.463e-01          -0.040           0.013          -0.999       2.965e+00          0.1415
 565       5.345e+00       6.417e+00       1.952e-01          -0.042           0.013          -0.999       3.053e+00          0.2119
 566       4.158e+00       6.417e+00       2.246e-01          -0.007           0.015          -1.000       2.962e+00          0.2672
 567       3.039e+00       6.417e+00       1.948e-01           0.063           0.016          -0.998       2.707e+00          0.2533
[...]
 852       3.527e+00       2.809e+01       5.495e-01          -0.007           0.015          -1.000       6.984e-01          0.2266
 853       2.940e+00       2.809e+01       5.338e-01           0.063           0.016          -0.998       6.381e-01          0.2086
 854       2.422e+00       2.809e+01       5.034e-01           0.054           0.016          -0.998       5.392e-01          0.1523
 855       2.006e+00       2.809e+01       4.910e-01          -0.003           0.018          -1.000       4.086e-01          0.1279
 856       1.714e+00       2.809e+01       5.111e-01          -0.172           0.024          -0.985       2.589e-01          0.2535
 857       1.563e+00       2.809e+01       5.628e-01          -0.643           0.045          -0.764       1.134e-01          0.7337
 858       1.563e+00       2.809e+01       6.642e-01          -0.875           0.041           0.482       1.801e-01          0.3019
 859       1.714e+00       2.809e+01       8.432e-01          -0.698           0.031           0.715       3.567e-01         -0.4385
 860       2.006e+00       2.808e+01       1.039e+00          -0.433           0.020           0.901       4.532e-01         -1.2961
 861       2.422e+00       2.808e+01       1.176e+00          -0.209           0.014           0.978       5.503e-01         -1.4618
 862       2.940e+00       2.808e+01       1.230e+00          -0.013           0.013           1.000       6.367e-01         -1.2066
 863       3.527e+00       2.808e+01       1.216e+00           0.057           0.014           0.998       6.993e-01         -0.8860
 864       4.151e+00       2.808e+01       1.159e+00           0.125           0.017           0.992       7.248e-01         -0.6844
 865       4.775e+00       2.808e+01       1.065e+00           0.173           0.020           0.985       7.091e-01         -0.5174
 866       5.363e+00       2.809e+01       9.478e-01           0.220           0.025           0.975       6.530e-01         -0.3709
 867       5.880e+00       2.809e+01       8.188e-01           0.268           0.030           0.963       5.592e-01         -0.2030
 868       6.297e+00       2.809e+01       6.975e-01           0.294           0.034           0.955       4.279e-01         -0.0402
 869       6.589e+00       2.809e+01       6.026e-01           0.331           0.040           0.943       2.707e-01          0.1607
 870       6.739e+00       2.809e+01       5.483e-01           0.363           0.045           0.931       9.322e-02          0.2971
Strip 34
 871       6.570e+00       2.913e+01       5.451e-01           0.123           0.036          -0.992       6.919e-02          0.2477
 872       6.426e+00       2.913e+01       5.324e-01           0.076           0.028          -0.997       2.026e-01          0.1724
 873       6.147e+00       2.913e+01       5.191e-01           0.030           0.021          -0.999       3.237e-01          0.0850
 874       5.748e+00       2.913e+01       5.111e-01           0.013           0.019          -1.000       4.264e-01          0.0526
 875       5.253e+00       2.913e+01       5.111e-01          -0.011           0.016          -1.000       5.044e-01          0.0408
 876       4.691e+00       2.913e+01       5.257e-01          -0.040           0.013          -0.999       5.535e-01          0.0760
 877       4.094e+00       2.913e+01       5.503e-01          -0.042           0.013          -0.999       5.701e-01          0.1453
 878       3.497e+00       2.913e+01       5.650e-01          -0.007           0.015          -1.000       5.530e-01          0.1992
 879       2.935e+00       2.913e+01       5.501e-01           0.063           0.016          -0.998       5.053e-01          0.1772
 880       2.440e+00       2.913e+01       5.209e-01           0.054           0.016          -0.998       4.269e-01          0.1132
 881       2.041e+00       2.913e+01       5.091e-01          -0.003           0.018          -1.000       3.236e-01          0.0761
 882       1.762e+00       2.913e+01       5.283e-01          -0.172           0.024          -0.985       2.050e-01          0.1764
 883       1.618e+00       2.913e+01       5.777e-01          -0.643           0.045          -0.764       8.977e-02          0.6566
 884       1.618e+00       2.913e+01       6.748e-01          -0.875           0.041           0.482       1.426e-01          0.4119
 885       1.762e+00       2.912e+01       8.460e-01          -0.698           0.031           0.715       2.824e-01         -0.3481
 886       2.041e+00       2.912e+01       1.033e+00          -0.432           0.020           0.901       3.589e-01         -1.1959
 887       2.440e+00       2.912e+01       1.164e+00          -0.209           0.014           0.978       4.358e-01         -1.3653
 888       2.935e+00       2.912e+01       1.216e+00          -0.013           0.013           1.000       5.042e-01         -1.1224
 889       3.497e+00       2.912e+01       1.203e+00           0.057           0.014           0.998       5.537e-01         -0.8168
 890       4.094e+00       2.912e+01       1.148e+00           0.125           0.017           0.992       5.740e-01         -0.6283
 891       4.691e+00       2.912e+01       1.058e+00           0.173           0.020           0.985       5.615e-01         -0.4760
 892       5.253e+00       2.912e+01       9.461e-01           0.220           0.025           0.975       5.171e-01         -0.3451
 893       5.748e+00       2.912e+01       8.227e-01           0.268           0.030           0.963       4.428e-01         -0.1938
 894       6.147e+00       2.913e+01       7.067e-01           0.294           0.034           0.955       3.389e-01         -0.0455
 895       6.426e+00       2.913e+01       6.159e-01           0.331           0.040           0.943       2.144e-01          0.1445
 896       6.570e+00       2.913e+01       5.639e-01           0.363           0.045           0.931       7.382e-02          0.2756
Strip 35
 897       6.433e+00       2.997e+01       5.584e-01           0.123           0.036          -0.992       5.233e-02          0.2203
 898       6.295e+00       2.997e+01       5.462e-01           0.076           0.028          -0.997       1.532e-01          0.1422
 899       6.025e+00       2.997e+01       5.333e-01           0.030           0.021          -0.999       2.448e-01          0.0510
 900       5.641e+00       2.997e+01       5.256e-01           0.013           0.019          -1.000       3.224e-01          0.0158
 901       5.164e+00       2.997e+01       5.256e-01          -0.011           0.016          -1.000       3.814e-01          0.0022
 902       4.623e+00       2.997e+01       5.397e-01          -0.040           0.013          -0.999       4.186e-01          0.0375
 903       4.048e+00       2.997e+01       5.634e-01          -0.042           0.013          -0.999       4.311e-01          0.1078
 904       3.473e+00       2.997e+01       5.776e-01          -0.007           0.015          -1.000       4.182e-01          0.1618
 905       2.931e+00       2.997e+01       5.632e-01           0.063           0.016          -0.998       3.821e-01          0.1362
 906       2.454e+00       2.997e+01       5.351e-01           0.054           0.016          -0.998       3.229e-01          0.0642
 907       2.070e+00       2.997e+01       5.237e-01          -0.003           0.018          -1.000       2.447e-01          0.0126
 908       1.801e+00       2.997e+01       5.422e-01          -0.172           0.024          -0.985       1.551e-01          0.0828
 909       1.662e+00       2.997e+01       5.898e-01          -0.643           0.045          -0.764       6.789e-02          0.5582
 910       1.662e+00       2.997e+01       6.834e-01          -0.875           0.041           0.482       1.078e-01          0.5204
 911       1.801e+00       2.996e+01       8.483e-01          -0.698           0.031           0.715       2.136e-01         -0.2496
 912       2.070e+00       2.996e+01       1.029e+00          -0.432           0.020           0.901       2.714e-01         -1.0748
 913       2.454e+00       2.996e+01       1.155e+00          -0.209           0.014           0.978       3.296e-01         -1.2391
 914       2.931e+00       2.996e+01       1.205e+00          -0.013           0.013           1.000       3.813e-01         -1.0084
 915       3.473e+00       2.996e+01       1.192e+00           0.057           0.014           0.998       4.188e-01         -0.7240
 916       4.048e+00       2.996e+01       1.139e+00           0.125           0.017           0.992       4.341e-01         -0.5557
 917       4.623e+00       2.996e+01       1.053e+00           0.173           0.020           0.985       4.246e-01         -0.4254
 918       5.164e+00       2.996e+01       9.448e-01           0.220           0.025           0.975       3.911e-01         -0.3179
 919       5.641e+00       2.996e+01       8.258e-01           0.268           0.030           0.963       3.349e-01         -0.1926
 920       6.025e+00       2.997e+01       7.141e-01           0.294           0.034           0.955       2.563e-01         -0.0681
 921       6.295e+00       2.997e+01       6.266e-01           0.331           0.040           0.943       1.621e-01          0.1040
 922       6.433e+00       2.997e+01       5.765e-01           0.363           0.045           0.931       5.583e-02          0.2268
Strip 36
 923       6.330e+00       3.060e+01       5.685e-01           0.123           0.036          -0.992       3.655e-02          0.1470
 924       6.195e+00       3.060e+01       5.566e-01           0.076           0.028          -0.997       1.070e-01          0.0670
 925       5.934e+00       3.060e+01       5.441e-01           0.030           0.021          -0.999       1.710e-01         -0.0250
 926       5.560e+00       3.060e+01       5.366e-01           0.013           0.019          -1.000       2.252e-01         -0.0566
 927       5.097e+00       3.060e+01       5.366e-01          -0.011           0.016          -1.000       2.665e-01         -0.0637
 928       4.571e+00       3.060e+01       5.503e-01          -0.040           0.013          -0.999       2.924e-01         -0.0220
 929       4.013e+00       3.060e+01       5.733e-01          -0.042           0.013          -0.999       3.012e-01          0.0523
 930       3.454e+00       3.060e+01       5.871e-01          -0.007           0.015          -1.000       2.922e-01          0.1093
 931       2.928e+00       3.060e+01       5.731e-01           0.063           0.016          -0.998       2.670e-01          0.0848
 932       2.465e+00       3.060e+01       5.458e-01           0.054           0.016          -0.998       2.256e-01          0.0091
 933       2.092e+00       3.060e+01       5.348e-01          -0.003           0.018          -1.000       1.709e-01         -0.0566
 934       1.830e+00       3.060e+01       5.527e-01          -0.172           0.024          -0.985       1.083e-01         -0.0190
 935       1.696e+00       3.060e+01       5.990e-01          -0.643           0.045          -0.764       4.742e-02          0.4512
 936       1.696e+00       3.060e+01       6.898e-01          -0.875           0.041           0.482       7.534e-02          0.6017
 937       1.830e+00       3.060e+01       8.501e-01          -0.698           0.031           0.715       1.492e-01         -0.1595
 938       2.092e+00       3.059e+01       1.025e+00          -0.432           0.020           0.901       1.896e-01         -0.9329
 939       2.465e+00       3.059e+01       1.148e+00          -0.209           0.014           0.978       2.302e-01         -1.0736
 940       2.928e+00       3.059e+01       1.197e+00          -0.013           0.013           1.000       2.664e-01         -0.8599
 941       3.454e+00       3.059e+01       1.184e+00           0.057           0.014           0.998       2.925e-01         -0.6119
 942       4.013e+00       3.059e+01       1.133e+00           0.125           0.017           0.992       3.032e-01         -0.4779
 943       4.571e+00       3.059e+01       1.049e+00           0.173           0.020           0.985       2.966e-01         -0.3816
 944       5.097e+00       3.060e+01       9.437e-01           0.220           0.025           0.975       2.732e-01         -0.3096
 945       5.560e+00       3.060e+01       8.282e-01           0.268           0.030           0.963       2.339e-01         -0.2277
 946       5.934e+00       3.060e+01       7.197e-01           0.294           0.034           0.955       1.790e-01         -0.1498
 947       6.195e+00       3.060e+01       6.347e-01           0.331           0.040           0.943       1.133e-01         -0.0149
 948       6.330e+00       3.060e+01       5.861e-01           0.363           0.045           0.931       3.900e-02          0.0932
Strip 37
 949       6.260e+00       3.103e+01       5.752e-01           0.123           0.036          -0.992       2.160e-02         -0.1587
 950       6.128e+00       3.103e+01       5.636e-01           0.076           0.028          -0.997       6.323e-02         -0.2117
 951       5.872e+00       3.103e+01       5.513e-01           0.030           0.021          -0.999       1.010e-01         -0.2359
 952       5.506e+00       3.103e+01       5.440e-01           0.013           0.019          -1.000       1.331e-01         -0.2059
 953       5.052e+00       3.103e+01       5.440e-01          -0.011           0.016          -1.000       1.574e-01         -0.1711
 954       4.537e+00       3.103e+01       5.574e-01          -0.040           0.013          -0.999       1.727e-01         -0.1077
 955       3.989e+00       3.103e+01       5.800e-01          -0.042           0.013          -0.999       1.779e-01         -0.0246
 956       3.442e+00       3.103e+01       5.935e-01          -0.007           0.015          -1.000       1.726e-01          0.0397
 957       2.926e+00       3.103e+01       5.798e-01           0.063           0.016          -0.998       1.577e-01          0.0296
 958       2.472e+00       3.103e+01       5.530e-01           0.054           0.016          -0.998       1.333e-01         -0.0335
 959       2.106e+00       3.103e+01       5.422e-01          -0.003           0.018          -1.000       1.010e-01         -0.1051
 960       1.850e+00       3.103e+01       5.598e-01          -0.172           0.024          -0.985       6.399e-02         -0.1106
 961       1.718e+00       3.103e+01       6.051e-01          -0.643           0.045          -0.764       2.802e-02          0.3597
 962       1.718e+00       3.103e+01       6.942e-01          -0.875           0.041           0.482       4.451e-02          0.5935
 963       1.850e+00       3.102e+01       8.512e-01          -0.698           0.031           0.715       8.816e-02         -0.1282
 964       2.106e+00       3.102e+01       1.023e+00          -0.432           0.020           0.901       1.120e-01         -0.7764
 965       2.472e+00       3.102e+01       1.143e+00          -0.209           0.014           0.978       1.360e-01         -0.8654
 966       2.926e+00       3.102e+01       1.191e+00          -0.013           0.013           1.000       1.574e-01         -0.6865
 967       3.442e+00       3.102e+01       1.179e+00           0.057           0.014           0.998       1.728e-01         -0.5018
 968       3.989e+00       3.102e+01       1.128e+00           0.125           0.017           0.992       1.792e-01         -0.4214
 969       4.537e+00       3.102e+01       1.046e+00           0.173           0.020           0.985       1.753e-01         -0.3749
 970       5.052e+00       3.102e+01       9.431e-01           0.220           0.025           0.975       1.614e-01         -0.3605
 971       5.506e+00       3.102e+01       8.298e-01           0.268           0.030           0.963       1.382e-01         -0.3714
 972       5.872e+00       3.103e+01       7.234e-01           0.294           0.034           0.955       1.058e-01         -0.4385
 973       6.128e+00       3.103e+01       6.402e-01           0.331           0.040           0.943       6.692e-02         -0.4935
 974       6.260e+00       3.103e+01       5.925e-01           0.363           0.045           0.931       2.304e-02         -0.4638
Strip 38
 975       6.226e+00       3.124e+01       5.786e-01           0.123           0.036          -0.992       7.142e-03         -0.6591
 976       6.095e+00       3.124e+01       5.671e-01           0.076           0.028          -0.997       2.091e-02         -0.6860
 977       5.841e+00       3.124e+01       5.550e-01           0.030           0.021          -0.999       3.341e-02         -0.5889
 978       5.479e+00       3.124e+01       5.477e-01           0.013           0.019          -1.000       4.401e-02         -0.4023
 979       5.030e+00       3.124e+01       5.477e-01          -0.011           0.016          -1.000       5.206e-02         -0.2759
 980       4.519e+00       3.124e+01       5.610e-01          -0.040           0.013          -0.999       5.713e-02         -0.1757
 981       3.978e+00       3.124e+01       5.833e-01          -0.042           0.013          -0.999       5.884e-02         -0.0849
 982       3.436e+00       3.124e+01       5.967e-01          -0.007           0.015          -1.000       5.708e-02         -0.0182
 983       2.925e+00       3.124e+01       5.831e-01           0.063           0.016          -0.998       5.216e-02         -0.0087
 984       2.476e+00       3.124e+01       5.566e-01           0.054           0.016          -0.998       4.407e-02         -0.0413
 985       2.114e+00       3.124e+01       5.459e-01          -0.003           0.018          -1.000       3.340e-02         -0.0828
 986       1.860e+00       3.124e+01       5.633e-01          -0.172           0.024          -0.985       2.116e-02         -0.1083
 987       1.729e+00       3.124e+01       6.082e-01          -0.644           0.045          -0.764       9.265e-03          0.3673
 988       1.729e+00       3.124e+01       6.964e-01          -0.875           0.041           0.482       1.472e-02          0.4879
 989       1.860e+00       3.124e+01       8.518e-01          -0.698           0.031           0.715       2.916e-02         -0.1491
 990       2.114e+00       3.123e+01       1.022e+00          -0.432           0.020           0.901       3.705e-02         -0.6133
 991       2.476e+00       3.123e+01       1.141e+00          -0.209           0.014           0.978       4.498e-02         -0.6650
 992       2.925e+00       3.123e+01       1.188e+00          -0.013           0.013           1.000       5.204e-02         -0.5389
 993       3.436e+00       3.123e+01       1.176e+00           0.057           0.014           0.998       5.716e-02         -0.4231
 994       3.978e+00       3.123e+01       1.126e+00           0.125           0.017           0.992       5.925e-02         -0.3877
 995       4.519e+00       3.123e+01       1.044e+00           0.173           0.020           0.985       5.796e-02         -0.3787
 996       5.030e+00       3.123e+01       9.427e-01           0.220           0.025           0.975       5.338e-02         -0.4030
 997       5.479e+00       3.124e+01       8.306e-01           0.268           0.030           0.963       4.571e-02         -0.4827
 998       5.841e+00       3.124e+01       7.253e-01           0.294           0.034           0.955       3.498e-02         -0.6724
 999       6.095e+00       3.124e+01       6.429e-01           0.331           0.040           0.943       2.213e-02         -0.9817
1000       6.226e+00       3.124e+01       5.957e-01           0.363           0.045           0.931       7.621e-03         -1.0783










