xflr5 v6.57

wing
T1-10.0 m/s-VLM1-Inviscid
QInf  =   10.000000 m/s
Alpha =   19.500000
Beta  =    0.000°
Phi   =    0.000°
Ctrl  =    0.000
CL    =    1.978332
Cy    =    0.000000
Cd    =    0.150654     ICd   =    0.150654     PCd   =    0.000000
Cl   = -1.54591e-16
Cm   =   -0.763982
ICn   =    0.000000     PCn   =    0.000000 
XCP   =    3.632998     YCP   =    0.000000     ZCP   =    0.502887  
XNP   =    0.000000
Bending = 485276.942105

Main Wing
  y-span        Chord      Ai         Cl        PCd          ICd        CmGeom    CmAirf@chord/4    XTrtop    XTrBot      XCP       BM
  -35.0051     5.0218    -7.266    0.660553    0.000000    0.182890   -0.491638   -0.086892     0.0000    0.0000    0.3743    0.0000
  -34.7660     5.0731    -7.067    0.875576    0.000000    0.161483   -0.610682   -0.068938     0.0000    0.0000    0.3173    5.8832
  -34.2894     5.1752    -6.759    1.137713    0.000000    0.154689   -0.760922   -0.067798     0.0000    0.0000    0.2973   64.6073
  -33.5786     5.3275    -6.228    1.377072    0.000000    0.157865   -0.890814   -0.074804     0.0000    0.0000    0.2919   306.3435
  -32.6383     5.5290    -5.611    1.574538    0.000000    0.157473   -0.983698   -0.084028     0.0000    0.0000    0.2908   979.3269
  -31.4752     5.7783    -5.017    1.727506    0.000000    0.152412   -1.037682   -0.092589     0.0000    0.0000    0.2911   2472.5321
  -30.0970     6.0736    -4.516    1.840220    0.000000    0.145209   -1.057834   -0.099396     0.0000    0.0000    0.2915   5326.1431
  -28.5132     6.4130    -4.136    1.919380    0.000000    0.138266   -1.051797   -0.104350     0.0000    0.0000    0.2918   10231.6910
  -26.7347     6.7941    -3.878    1.971796    0.000000    0.132990   -1.027192   -0.107743     0.0000    0.0000    0.2921   18023.6255
  -24.7735     7.2143    -3.731    2.003326    0.000000    0.129926   -0.990431   -0.109937     0.0000    0.0000    0.2924   29663.1803
  -22.6431     7.6709    -3.679    2.018582    0.000000    0.129104   -0.946413   -0.111237     0.0000    0.0000    0.2926   46214.6119
  -20.3581     8.1605    -3.707    2.020985    0.000000    0.130314   -0.898644   -0.111865     0.0000    0.0000    0.2928   68813.5777
  -17.9339     8.6800    -3.803    2.012946    0.000000    0.133266   -0.849495   -0.111969     0.0000    0.0000    0.2931   98627.5448
  -15.3873     9.2257    -3.957    1.996059    0.000000    0.137673   -0.800475   -0.111637     0.0000    0.0000    0.2934   136808.5362
  -12.7355     9.7939    -4.164    1.971249    0.000000    0.143282   -0.752454   -0.110913     0.0000    0.0000    0.2937   184439.0840
   -9.9968    10.3808    -4.422    1.938869    0.000000    0.149892   -0.705841   -0.109807     0.0000    0.0000    0.2941   242472.8641
   -7.1897    10.9823    -4.733    1.898723    0.000000    0.157399   -0.660698   -0.108306     0.0000    0.0000    0.2945   311672.0274
   -4.3336    11.5944    -5.112    1.849950    0.000000    0.165977   -0.616810   -0.106388     0.0000    0.0000    0.2949   392543.5775
   -1.4478    12.2127    -5.623    1.790685    0.000000    0.179254   -0.573940   -0.104296     0.0000    0.0000    0.2956   485276.9421
    1.4478    12.2127    -5.623    1.790685    0.000000    0.179254   -0.573940   -0.104296     0.0000    0.0000    0.2956   485276.3623
    4.3336    11.5944    -5.112    1.849950    0.000000    0.165977   -0.616810   -0.106388     0.0000    0.0000    0.2949   392543.0204
    7.1897    10.9823    -4.733    1.898723    0.000000    0.157399   -0.660698   -0.108306     0.0000    0.0000    0.2945   311671.5103
    9.9968    10.3808    -4.422    1.938869    0.000000    0.149892   -0.705841   -0.109807     0.0000    0.0000    0.2941   242472.3987
   12.7355     9.7939    -4.164    1.971249    0.000000    0.143282   -0.752454   -0.110913     0.0000    0.0000    0.2937   184438.6775
   15.3873     9.2257    -3.957    1.996059    0.000000    0.137673   -0.800475   -0.111637     0.0000    0.0000    0.2934   136808.1915
   17.9339     8.6800    -3.803    2.012946    0.000000    0.133266   -0.849495   -0.111969     0.0000    0.0000    0.2931   98627.2613
   20.3581     8.1605    -3.707    2.020985    0.000000    0.130314   -0.898644   -0.111865     0.0000    0.0000    0.2928   68813.3520
   22.6431     7.6709    -3.679    2.018582    0.000000    0.129104   -0.946413   -0.111237     0.0000    0.0000    0.2926   46214.4386
   24.7735     7.2143    -3.731    2.003326    0.000000    0.129926   -0.990431   -0.109937     0.0000    0.0000    0.2924   29663.0525
   26.7347     6.7941    -3.878    1.971796    0.000000    0.132990   -1.027192   -0.107743     0.0000    0.0000    0.2921   18023.5358
   28.5132     6.4130    -4.136    1.919380    0.000000    0.138266   -1.051797   -0.104350     0.0000    0.0000    0.2918   10231.6315
   30.0970     6.0736    -4.516    1.840220    0.000000    0.145209   -1.057834   -0.099396     0.0000    0.0000    0.2915   5326.1065
   31.4752     5.7783    -5.017    1.727506    0.000000    0.152412   -1.037682   -0.092589     0.0000    0.0000    0.2911   2472.5117
   32.6383     5.5290    -5.611    1.574538    0.000000    0.157473   -0.983698   -0.084028     0.0000    0.0000    0.2908   979.3169
   33.5786     5.3275    -6.228    1.377072    0.000000    0.157865   -0.890814   -0.074804     0.0000    0.0000    0.2919   306.3395
   34.2894     5.1752    -6.759    1.137713    0.000000    0.154689   -0.760922   -0.067798     0.0000    0.0000    0.2973   64.6060
   34.7660     5.0731    -7.067    0.875576    0.000000    0.161483   -0.610682   -0.068938     0.0000    0.0000    0.3173    5.8830
   35.0051     5.0218    -7.266    0.660553    0.000000    0.182890   -0.491638   -0.086892     0.0000    0.0000    0.3743    0.0000


Main Wing Cp Coefficients
 Panel     CtrlPt.x        CtrlPt.y        CtrlPt.z       Nx      Ny       Nz        Area       Cp
Main WingCp Coefficients
Strip 1
   0       6.875e+00      -3.501e+01       4.357e-02           0.130          -0.023           0.991       8.816e-03          0.5012
   1       6.767e+00      -3.501e+01       5.813e-02           0.136          -0.024           0.990       2.596e-02          0.6466
   2       6.520e+00      -3.501e+01       9.220e-02           0.138          -0.024           0.990       4.159e-02          0.6243
   3       6.149e+00      -3.501e+01       1.431e-01           0.132          -0.023           0.991       5.476e-02          0.5010
   4       5.675e+00      -3.501e+01       2.035e-01           0.112          -0.021           0.994       6.462e-02          0.4315
   5       5.126e+00      -3.501e+01       2.616e-01           0.087          -0.019           0.996       7.068e-02          0.3207
   6       4.534e+00      -3.501e+01       3.100e-01           0.063          -0.017           0.998       7.266e-02          0.2885
   7       3.933e+00      -3.501e+01       3.429e-01           0.028          -0.016           0.999       7.043e-02          0.3710
   8       3.358e+00      -3.501e+01       3.546e-01          -0.006          -0.015           1.000       6.421e-02          0.6592
   9       2.843e+00      -3.501e+01       3.400e-01          -0.106          -0.016           0.994       5.458e-02          0.9956
  10       2.417e+00      -3.501e+01       2.833e-01          -0.232          -0.019           0.973       4.235e-02          1.2936
  11       2.105e+00      -3.501e+01       2.002e-01          -0.372          -0.024           0.928       2.771e-02          1.4886
  12       1.926e+00      -3.501e+01       1.267e-01          -0.439          -0.027           0.898       9.733e-03          2.8115
Strip 2
  13       6.914e+00      -3.477e+01       4.402e-02           0.130          -0.023           0.991       2.666e-02          0.2060
  14       6.804e+00      -3.477e+01       5.872e-02           0.136          -0.024           0.990       7.849e-02          0.3668
  15       6.555e+00      -3.477e+01       9.314e-02           0.138          -0.024           0.990       1.258e-01          0.4727
  16       6.180e+00      -3.477e+01       1.446e-01           0.132          -0.023           0.991       1.656e-01          0.5055
  17       5.701e+00      -3.477e+01       2.056e-01           0.112          -0.021           0.994       1.954e-01          0.4847
  18       5.146e+00      -3.477e+01       2.643e-01           0.087          -0.019           0.996       2.137e-01          0.4727
  19       4.548e+00      -3.477e+01       3.131e-01           0.063          -0.017           0.998       2.197e-01          0.5424
  20       3.941e+00      -3.477e+01       3.464e-01           0.028          -0.016           0.999       2.130e-01          0.6926
  21       3.360e+00      -3.477e+01       3.582e-01          -0.006          -0.015           1.000       1.941e-01          1.0437
  22       2.840e+00      -3.477e+01       3.434e-01          -0.106          -0.016           0.994       1.650e-01          1.4164
  23       2.410e+00      -3.477e+01       2.861e-01          -0.232          -0.019           0.973       1.281e-01          1.7775
  24       2.095e+00      -3.477e+01       2.023e-01          -0.372          -0.024           0.928       8.378e-02          2.1733
  25       1.914e+00      -3.477e+01       1.280e-01          -0.439          -0.027           0.898       2.943e-02          4.3237
Strip 3
  26       6.990e+00      -3.429e+01       4.490e-02           0.130          -0.023           0.991       4.512e-02          0.1373
  27       6.878e+00      -3.429e+01       5.991e-02           0.136          -0.024           0.990       1.328e-01          0.2708
  28       6.624e+00      -3.429e+01       9.501e-02           0.138          -0.024           0.990       2.129e-01          0.4066
  29       6.241e+00      -3.429e+01       1.475e-01           0.132          -0.023           0.991       2.803e-01          0.5240
  30       5.753e+00      -3.429e+01       2.097e-01           0.112          -0.021           0.994       3.307e-01          0.5939
  31       5.187e+00      -3.429e+01       2.696e-01           0.087          -0.019           0.996       3.617e-01          0.6658
  32       4.577e+00      -3.429e+01       3.194e-01           0.063          -0.017           0.998       3.718e-01          0.8049
  33       3.958e+00      -3.429e+01       3.534e-01           0.028          -0.016           0.999       3.604e-01          1.0126
  34       3.365e+00      -3.429e+01       3.654e-01          -0.006          -0.015           1.000       3.286e-01          1.4262
  35       2.834e+00      -3.429e+01       3.504e-01          -0.106          -0.016           0.994       2.793e-01          1.8598
  36       2.395e+00      -3.429e+01       2.919e-01          -0.232          -0.019           0.973       2.167e-01          2.3135
  37       2.074e+00      -3.429e+01       2.063e-01          -0.372          -0.024           0.928       1.418e-01          2.9016
  38       1.889e+00      -3.429e+01       1.306e-01          -0.439          -0.027           0.898       4.981e-02          5.8577
Strip 4
  39       7.104e+00      -3.358e+01       4.623e-02           0.130          -0.023           0.991       6.458e-02          0.1292
  40       6.989e+00      -3.358e+01       6.167e-02           0.136          -0.024           0.990       1.901e-01          0.2611
  41       6.727e+00      -3.358e+01       9.781e-02           0.138          -0.024           0.990       3.047e-01          0.4109
  42       6.333e+00      -3.358e+01       1.518e-01           0.132          -0.023           0.991       4.011e-01          0.5691
  43       5.830e+00      -3.358e+01       2.159e-01           0.112          -0.021           0.994       4.733e-01          0.7000
  44       5.248e+00      -3.358e+01       2.776e-01           0.087          -0.019           0.996       5.177e-01          0.8352
  45       4.620e+00      -3.358e+01       3.288e-01           0.063          -0.017           0.998       5.322e-01          1.0303
  46       3.982e+00      -3.358e+01       3.638e-01           0.028          -0.016           0.999       5.159e-01          1.2879
  47       3.372e+00      -3.358e+01       3.761e-01          -0.006          -0.015           1.000       4.703e-01          1.7482
  48       2.825e+00      -3.358e+01       3.607e-01          -0.106          -0.016           0.994       3.998e-01          2.2339
  49       2.374e+00      -3.358e+01       3.005e-01          -0.232          -0.019           0.973       3.102e-01          2.7637
  50       2.043e+00      -3.358e+01       2.124e-01          -0.372          -0.024           0.928       2.030e-01          3.5310
  51       1.853e+00      -3.358e+01       1.344e-01          -0.439          -0.027           0.898       7.129e-02          7.2401
Strip 5
  52       7.254e+00      -3.264e+01       4.797e-02           0.130          -0.023           0.991       8.538e-02          0.1374
  53       7.135e+00      -3.264e+01       6.400e-02           0.136          -0.024           0.990       2.514e-01          0.2771
  54       6.863e+00      -3.264e+01       1.015e-01           0.138          -0.024           0.990       4.028e-01          0.4417
  55       6.454e+00      -3.264e+01       1.576e-01           0.132          -0.023           0.991       5.304e-01          0.6259
  56       5.932e+00      -3.264e+01       2.240e-01           0.112          -0.021           0.994       6.258e-01          0.7950
  57       5.328e+00      -3.264e+01       2.881e-01           0.087          -0.019           0.996       6.845e-01          0.9731
  58       4.676e+00      -3.264e+01       3.413e-01           0.063          -0.017           0.998       7.037e-01          1.2091
  59       4.014e+00      -3.264e+01       3.775e-01           0.028          -0.016           0.999       6.821e-01          1.5036
  60       3.382e+00      -3.264e+01       3.904e-01          -0.006          -0.015           1.000       6.218e-01          1.9977
  61       2.814e+00      -3.264e+01       3.743e-01          -0.106          -0.016           0.994       5.286e-01          2.5248
  62       2.345e+00      -3.264e+01       3.119e-01          -0.232          -0.019           0.973       4.101e-01          3.1210
  63       2.002e+00      -3.264e+01       2.204e-01          -0.372          -0.024           0.928       2.684e-01          4.0475
  64       1.805e+00      -3.264e+01       1.395e-01          -0.439          -0.027           0.898       9.426e-02          8.3984
Strip 6
  65       7.440e+00      -3.148e+01       5.014e-02           0.130          -0.023           0.991       1.078e-01          0.1492
  66       7.316e+00      -3.148e+01       6.689e-02           0.136          -0.024           0.990       3.174e-01          0.2984
  67       7.031e+00      -3.148e+01       1.061e-01           0.138          -0.024           0.990       5.086e-01          0.4767
  68       6.604e+00      -3.148e+01       1.647e-01           0.132          -0.023           0.991       6.697e-01          0.6799
  69       6.059e+00      -3.148e+01       2.341e-01           0.112          -0.021           0.994       7.902e-01          0.8739
  70       5.427e+00      -3.148e+01       3.010e-01           0.087          -0.019           0.996       8.643e-01          1.0799
  71       4.746e+00      -3.148e+01       3.566e-01           0.063          -0.017           0.998       8.885e-01          1.3431
  72       4.055e+00      -3.148e+01       3.945e-01           0.028          -0.016           0.999       8.613e-01          1.6629
  73       3.393e+00      -3.148e+01       4.080e-01          -0.006          -0.015           1.000       7.852e-01          2.1817
  74       2.800e+00      -3.148e+01       3.912e-01          -0.106          -0.016           0.994       6.675e-01          2.7421
  75       2.310e+00      -3.148e+01       3.259e-01          -0.232          -0.019           0.973       5.179e-01          3.3940
  76       1.952e+00      -3.148e+01       2.304e-01          -0.372          -0.024           0.928       3.388e-01          4.4512
  77       1.745e+00      -3.148e+01       1.458e-01          -0.439          -0.027           0.898       1.190e-01          9.3141
Strip 7
  78       7.661e+00      -3.010e+01       5.270e-02           0.130          -0.023           0.991       1.321e-01          0.1600
  79       7.530e+00      -3.010e+01       7.031e-02           0.136          -0.024           0.990       3.889e-01          0.3177
  80       7.231e+00      -3.010e+01       1.115e-01           0.138          -0.024           0.990       6.231e-01          0.5070
  81       6.782e+00      -3.010e+01       1.731e-01           0.132          -0.023           0.991       8.204e-01          0.7238
  82       6.209e+00      -3.010e+01       2.461e-01           0.112          -0.021           0.994       9.680e-01          0.9345
  83       5.545e+00      -3.010e+01       3.164e-01           0.087          -0.019           0.996       1.059e+00          1.1585
  84       4.829e+00      -3.010e+01       3.749e-01           0.063          -0.017           0.998       1.089e+00          1.4393
  85       4.102e+00      -3.010e+01       4.147e-01           0.028          -0.016           0.999       1.055e+00          1.7763
  86       3.407e+00      -3.010e+01       4.288e-01          -0.006          -0.015           1.000       9.619e-01          2.3130
  87       2.784e+00      -3.010e+01       4.112e-01          -0.106          -0.016           0.994       8.177e-01          2.8993
  88       2.269e+00      -3.010e+01       3.426e-01          -0.232          -0.019           0.973       6.344e-01          3.5947
  89       1.892e+00      -3.010e+01       2.421e-01          -0.372          -0.024           0.928       4.151e-01          4.7520
  90       1.675e+00      -3.010e+01       1.532e-01          -0.439          -0.027           0.898       1.458e-01         10.0009
Strip 8
  91       7.914e+00      -2.851e+01       5.564e-02           0.130          -0.023           0.991       1.583e-01          0.1684
  92       7.776e+00      -2.851e+01       7.424e-02           0.136          -0.024           0.990       4.661e-01          0.3326
  93       7.461e+00      -2.851e+01       1.177e-01           0.138          -0.024           0.990       7.469e-01          0.5299
  94       6.986e+00      -2.851e+01       1.828e-01           0.132          -0.023           0.991       9.833e-01          0.7562
  95       6.381e+00      -2.851e+01       2.599e-01           0.112          -0.021           0.994       1.160e+00          0.9779
  96       5.680e+00      -2.851e+01       3.341e-01           0.087          -0.019           0.996       1.269e+00          1.2135
  97       4.924e+00      -2.851e+01       3.958e-01           0.063          -0.017           0.998       1.305e+00          1.5058
  98       4.157e+00      -2.851e+01       4.379e-01           0.028          -0.016           0.999       1.265e+00          1.8543
  99       3.423e+00      -2.851e+01       4.528e-01          -0.006          -0.015           1.000       1.153e+00          2.4036
 100       2.764e+00      -2.851e+01       4.342e-01          -0.106          -0.016           0.994       9.801e-01          3.0085
 101       2.221e+00      -2.851e+01       3.617e-01          -0.232          -0.019           0.973       7.604e-01          3.7356
 102       1.823e+00      -2.851e+01       2.557e-01          -0.372          -0.024           0.928       4.976e-01          4.9650
 103       1.594e+00      -2.851e+01       1.618e-01          -0.439          -0.027           0.898       1.748e-01         10.4890
Strip 9
 104       8.199e+00      -2.673e+01       5.895e-02           0.130          -0.023           0.991       1.865e-01          0.1743
 105       8.052e+00      -2.673e+01       7.865e-02           0.136          -0.024           0.990       5.493e-01          0.3431
 106       7.718e+00      -2.673e+01       1.247e-01           0.138          -0.024           0.990       8.801e-01          0.5458
 107       7.216e+00      -2.673e+01       1.936e-01           0.132          -0.023           0.991       1.159e+00          0.7783
 108       6.575e+00      -2.673e+01       2.753e-01           0.112          -0.021           0.994       1.367e+00          1.0071
 109       5.832e+00      -2.673e+01       3.540e-01           0.087          -0.019           0.996       1.495e+00          1.2501
 110       5.031e+00      -2.673e+01       4.193e-01           0.063          -0.017           0.998       1.537e+00          1.5496
 111       4.218e+00      -2.673e+01       4.639e-01           0.028          -0.016           0.999       1.490e+00          1.9054
 112       3.440e+00      -2.673e+01       4.797e-01          -0.006          -0.015           1.000       1.359e+00          2.4629
 113       2.743e+00      -2.673e+01       4.600e-01          -0.106          -0.016           0.994       1.155e+00          3.0804
 114       2.167e+00      -2.673e+01       3.832e-01          -0.232          -0.019           0.973       8.960e-01          3.8286
 115       1.745e+00      -2.673e+01       2.709e-01          -0.372          -0.024           0.928       5.863e-01          5.1060
 116       1.503e+00      -2.673e+01       1.714e-01          -0.439          -0.027           0.898       2.059e-01         10.8125
Strip 10
 117       8.513e+00      -2.477e+01       6.260e-02           0.130          -0.023           0.991       2.167e-01          0.1781
 118       8.357e+00      -2.477e+01       8.351e-02           0.136          -0.024           0.990       6.381e-01          0.3497
 119       8.002e+00      -2.477e+01       1.325e-01           0.138          -0.024           0.990       1.022e+00          0.5558
 120       7.469e+00      -2.477e+01       2.056e-01           0.132          -0.023           0.991       1.346e+00          0.7921
 121       6.788e+00      -2.477e+01       2.923e-01           0.112          -0.021           0.994       1.588e+00          1.0251
 122       6.000e+00      -2.477e+01       3.759e-01           0.087          -0.019           0.996       1.737e+00          1.2725
 123       5.149e+00      -2.477e+01       4.453e-01           0.063          -0.017           0.998       1.786e+00          1.5762
 124       4.286e+00      -2.477e+01       4.926e-01           0.028          -0.016           0.999       1.731e+00          1.9363
 125       3.460e+00      -2.477e+01       5.094e-01          -0.006          -0.015           1.000       1.578e+00          2.4985
 126       2.719e+00      -2.477e+01       4.884e-01          -0.106          -0.016           0.994       1.342e+00          3.1232
 127       2.108e+00      -2.477e+01       4.069e-01          -0.232          -0.019           0.973       1.041e+00          3.8837
 128       1.660e+00      -2.477e+01       2.876e-01          -0.372          -0.024           0.928       6.811e-01          5.1892
 129       1.403e+00      -2.477e+01       1.820e-01          -0.439          -0.027           0.898       2.392e-01         11.0030
Strip 11
 130       8.854e+00      -2.264e+01       6.656e-02           0.130          -0.023           0.991       2.487e-01          0.1801
 131       8.688e+00      -2.264e+01       8.880e-02           0.136          -0.024           0.990       7.322e-01          0.3532
 132       8.311e+00      -2.264e+01       1.408e-01           0.138          -0.024           0.990       1.173e+00          0.5611
 133       7.744e+00      -2.264e+01       2.186e-01           0.132          -0.023           0.991       1.545e+00          0.7994
 134       7.020e+00      -2.264e+01       3.108e-01           0.112          -0.021           0.994       1.823e+00          1.0346
 135       6.182e+00      -2.264e+01       3.997e-01           0.087          -0.019           0.996       1.994e+00          1.2841
 136       5.277e+00      -2.264e+01       4.735e-01           0.063          -0.017           0.998       2.049e+00          1.5898
 137       4.359e+00      -2.264e+01       5.237e-01           0.028          -0.016           0.999       1.987e+00          1.9516
 138       3.481e+00      -2.264e+01       5.416e-01          -0.006          -0.015           1.000       1.811e+00          2.5158
 139       2.694e+00      -2.264e+01       5.193e-01          -0.106          -0.016           0.994       1.540e+00          3.1433
 140       2.043e+00      -2.264e+01       4.327e-01          -0.232          -0.019           0.973       1.194e+00          3.9089
 141       1.567e+00      -2.264e+01       3.058e-01          -0.372          -0.024           0.928       7.816e-01          5.2262
 142       1.294e+00      -2.264e+01       1.935e-01          -0.439          -0.027           0.898       2.745e-01         11.0870
Strip 12
 143       9.219e+00      -2.036e+01       7.081e-02           0.130          -0.023           0.991       2.822e-01          0.1807
 144       9.043e+00      -2.036e+01       9.446e-02           0.136          -0.024           0.990       8.307e-01          0.3542
 145       8.642e+00      -2.036e+01       1.498e-01           0.138          -0.024           0.990       1.331e+00          0.5626
 146       8.039e+00      -2.036e+01       2.326e-01           0.132          -0.023           0.991       1.753e+00          0.8015
 147       7.269e+00      -2.036e+01       3.307e-01           0.112          -0.021           0.994       2.068e+00          1.0373
 148       6.377e+00      -2.036e+01       4.252e-01           0.087          -0.019           0.996       2.262e+00          1.2872
 149       5.414e+00      -2.036e+01       5.037e-01           0.063          -0.017           0.998       2.325e+00          1.5932
 150       4.438e+00      -2.036e+01       5.572e-01           0.028          -0.016           0.999       2.254e+00          1.9550
 151       3.504e+00      -2.036e+01       5.762e-01          -0.006          -0.015           1.000       2.055e+00          2.5188
 152       2.666e+00      -2.036e+01       5.525e-01          -0.106          -0.016           0.994       1.747e+00          3.1455
 153       1.974e+00      -2.036e+01       4.603e-01          -0.232          -0.019           0.973       1.355e+00          3.9100
 154       1.468e+00      -2.036e+01       3.254e-01          -0.372          -0.024           0.928       8.868e-01          5.2261
 155       1.177e+00      -2.036e+01       2.059e-01          -0.439          -0.027           0.898       3.115e-01         11.0850
Strip 13
 156       9.607e+00      -1.793e+01       7.531e-02           0.130          -0.023           0.991       3.168e-01          0.1801
 157       9.420e+00      -1.793e+01       1.005e-01           0.136          -0.024           0.990       9.327e-01          0.3532
 158       8.993e+00      -1.793e+01       1.594e-01           0.138          -0.024           0.990       1.494e+00          0.5611
 159       8.352e+00      -1.793e+01       2.474e-01           0.132          -0.023           0.991       1.968e+00          0.7994
 160       7.533e+00      -1.793e+01       3.517e-01           0.112          -0.021           0.994       2.322e+00          1.0345
 161       6.584e+00      -1.793e+01       4.522e-01           0.087          -0.019           0.996       2.540e+00          1.2837
 162       5.560e+00      -1.793e+01       5.357e-01           0.063          -0.017           0.998       2.611e+00          1.5886
 163       4.521e+00      -1.793e+01       5.926e-01           0.028          -0.016           0.999       2.531e+00          1.9488
 164       3.528e+00      -1.793e+01       6.128e-01          -0.006          -0.015           1.000       2.307e+00          2.5102
 165       2.637e+00      -1.793e+01       5.876e-01          -0.106          -0.016           0.994       1.961e+00          3.1331
 166       1.901e+00      -1.793e+01       4.896e-01          -0.232          -0.019           0.973       1.522e+00          3.8916
 167       1.363e+00      -1.793e+01       3.461e-01          -0.372          -0.024           0.928       9.956e-01          5.1955
 168       1.053e+00      -1.793e+01       2.190e-01          -0.439          -0.027           0.898       3.497e-01         11.0120
Strip 14
 169       1.001e+01      -1.539e+01       8.005e-02           0.130          -0.023           0.991       3.521e-01          0.1786
 170       9.816e+00      -1.539e+01       1.068e-01           0.136          -0.024           0.990       1.037e+00          0.3504
 171       9.362e+00      -1.539e+01       1.694e-01           0.138          -0.024           0.990       1.661e+00          0.5569
 172       8.680e+00      -1.539e+01       2.629e-01           0.132          -0.023           0.991       2.187e+00          0.7938
 173       7.810e+00      -1.539e+01       3.738e-01           0.112          -0.021           0.994       2.581e+00          1.0273
 174       6.801e+00      -1.539e+01       4.807e-01           0.087          -0.019           0.996       2.823e+00          1.2745
 175       5.713e+00      -1.539e+01       5.694e-01           0.063          -0.017           0.998       2.902e+00          1.5771
 176       4.609e+00      -1.539e+01       6.299e-01           0.028          -0.016           0.999       2.813e+00          1.9344
 177       3.553e+00      -1.539e+01       6.514e-01          -0.006          -0.015           1.000       2.564e+00          2.4917
 178       2.606e+00      -1.539e+01       6.246e-01          -0.106          -0.016           0.994       2.180e+00          3.1084
 179       1.824e+00      -1.539e+01       5.204e-01          -0.232          -0.019           0.973       1.691e+00          3.8564
 180       1.252e+00      -1.539e+01       3.678e-01          -0.372          -0.024           0.928       1.107e+00          5.1388
 181       9.224e-01      -1.539e+01       2.328e-01          -0.439          -0.027           0.898       3.887e-01         10.8784
Strip 15
 182       1.044e+01      -1.274e+01       8.498e-02           0.130          -0.023           0.991       3.876e-01          0.1761
 183       1.023e+01      -1.274e+01       1.134e-01           0.136          -0.024           0.990       1.141e+00          0.3461
 184       9.746e+00      -1.274e+01       1.798e-01           0.138          -0.024           0.990       1.829e+00          0.5504
 185       9.022e+00      -1.274e+01       2.791e-01           0.132          -0.023           0.991       2.408e+00          0.7850
 186       8.098e+00      -1.274e+01       3.969e-01           0.112          -0.021           0.994       2.841e+00          1.0159
 187       7.028e+00      -1.274e+01       5.103e-01           0.087          -0.019           0.996       3.107e+00          1.2602
 188       5.873e+00      -1.274e+01       6.045e-01           0.063          -0.017           0.998       3.194e+00          1.5595
 189       4.701e+00      -1.274e+01       6.687e-01           0.028          -0.016           0.999       3.097e+00          1.9127
 190       3.579e+00      -1.274e+01       6.915e-01          -0.006          -0.015           1.000       2.823e+00          2.4645
 191       2.574e+00      -1.274e+01       6.630e-01          -0.106          -0.016           0.994       2.400e+00          3.0725
 192       1.744e+00      -1.274e+01       5.524e-01          -0.232          -0.019           0.973       1.862e+00          3.8063
 193       1.136e+00      -1.274e+01       3.905e-01          -0.372          -0.024           0.928       1.218e+00          5.0588
 194       7.867e-01      -1.274e+01       2.471e-01          -0.439          -0.027           0.898       4.279e-01         10.6907
Strip 16
 195       1.088e+01      -9.997e+00       9.007e-02           0.130          -0.023           0.991       4.227e-01          0.1728
 196       1.065e+01      -9.997e+00       1.202e-01           0.136          -0.024           0.990       1.245e+00          0.3402
 197       1.014e+01      -9.997e+00       1.906e-01           0.138          -0.024           0.990       1.994e+00          0.5417
 198       9.376e+00      -9.997e+00       2.959e-01           0.132          -0.023           0.991       2.625e+00          0.7731
 199       8.396e+00      -9.997e+00       4.206e-01           0.112          -0.021           0.994       3.098e+00          1.0006
 200       7.261e+00      -9.997e+00       5.408e-01           0.087          -0.019           0.996       3.388e+00          1.2411
 201       6.037e+00      -9.997e+00       6.407e-01           0.063          -0.017           0.998       3.483e+00          1.5362
 202       4.795e+00      -9.997e+00       7.088e-01           0.028          -0.016           0.999       3.377e+00          1.8841
 203       3.607e+00      -9.997e+00       7.329e-01          -0.006          -0.015           1.000       3.078e+00          2.4290
 204       2.541e+00      -9.997e+00       7.028e-01          -0.106          -0.016           0.994       2.617e+00          3.0261
 205       1.661e+00      -9.997e+00       5.855e-01          -0.232          -0.019           0.973       2.030e+00          3.7419
 206       1.017e+00      -9.997e+00       4.139e-01          -0.372          -0.024           0.928       1.328e+00          4.9566
 207       6.466e-01      -9.997e+00       2.619e-01          -0.439          -0.027           0.898       4.666e-01         10.4514
Strip 17
 208       1.133e+01      -7.190e+00       9.529e-02           0.130          -0.023           0.991       4.566e-01          0.1685
 209       1.109e+01      -7.190e+00       1.271e-01           0.136          -0.024           0.990       1.344e+00          0.3327
 210       1.055e+01      -7.190e+00       2.016e-01           0.138          -0.024           0.990       2.154e+00          0.5305
 211       9.738e+00      -7.190e+00       3.130e-01           0.132          -0.023           0.991       2.836e+00          0.7580
 212       8.702e+00      -7.190e+00       4.450e-01           0.112          -0.021           0.994       3.347e+00          0.9812
 213       7.501e+00      -7.190e+00       5.722e-01           0.087          -0.019           0.996       3.661e+00          1.2171
 214       6.206e+00      -7.190e+00       6.778e-01           0.063          -0.017           0.998       3.763e+00          1.5070
 215       4.892e+00      -7.190e+00       7.498e-01           0.028          -0.016           0.999       3.648e+00          1.8485
 216       3.635e+00      -7.190e+00       7.754e-01          -0.006          -0.015           1.000       3.325e+00          2.3849
 217       2.508e+00      -7.190e+00       7.435e-01          -0.106          -0.016           0.994       2.827e+00          2.9688
 218       1.576e+00      -7.190e+00       6.195e-01          -0.232          -0.019           0.973       2.193e+00          3.6627
 219       8.950e-01      -7.190e+00       4.379e-01          -0.372          -0.024           0.928       1.435e+00          4.8314
 220       5.030e-01      -7.190e+00       2.771e-01          -0.439          -0.027           0.898       5.041e-01         10.1591
Strip 18
 221       1.178e+01      -4.334e+00       1.006e-01           0.130          -0.023           0.991       4.888e-01          0.1629
 222       1.153e+01      -4.334e+00       1.342e-01           0.136          -0.024           0.990       1.439e+00          0.3230
 223       1.096e+01      -4.334e+00       2.129e-01           0.138          -0.024           0.990       2.306e+00          0.5162
 224       1.011e+01      -4.334e+00       3.304e-01           0.132          -0.023           0.991       3.036e+00          0.7389
 225       9.012e+00      -4.334e+00       4.698e-01           0.112          -0.021           0.994       3.582e+00          0.9571
 226       7.745e+00      -4.334e+00       6.041e-01           0.087          -0.019           0.996       3.918e+00          1.1879
 227       6.378e+00      -4.334e+00       7.156e-01           0.063          -0.017           0.998       4.028e+00          1.4719
 228       4.990e+00      -4.334e+00       7.916e-01           0.028          -0.016           0.999       3.905e+00          1.8060
 229       3.663e+00      -4.334e+00       8.186e-01          -0.006          -0.015           1.000       3.560e+00          2.3319
 230       2.473e+00      -4.334e+00       7.849e-01          -0.106          -0.016           0.994       3.026e+00          2.8993
 231       1.490e+00      -4.334e+00       6.540e-01          -0.232          -0.019           0.973       2.348e+00          3.5664
 232       7.708e-01      -4.334e+00       4.623e-01          -0.372          -0.024           0.928       1.536e+00          4.6792
 233       3.569e-01      -4.334e+00       2.925e-01          -0.439          -0.027           0.898       5.396e-01          9.8037
Strip 19
 234       1.225e+01      -1.448e+00       1.060e-01           0.130          -0.023           0.991       5.184e-01          0.1552
 235       1.198e+01      -1.448e+00       1.414e-01           0.136          -0.024           0.990       1.526e+00          0.3097
 236       1.138e+01      -1.448e+00       2.242e-01           0.138          -0.024           0.990       2.446e+00          0.4971
 237       1.048e+01      -1.448e+00       3.481e-01           0.132          -0.023           0.991       3.220e+00          0.7145
 238       9.326e+00      -1.448e+00       4.949e-01           0.112          -0.021           0.994       3.799e+00          0.9278
 239       7.991e+00      -1.448e+00       6.363e-01           0.087          -0.019           0.996       4.156e+00          1.1538
 240       6.551e+00      -1.448e+00       7.538e-01           0.063          -0.017           0.998       4.272e+00          1.4323
 241       5.090e+00      -1.448e+00       8.339e-01           0.028          -0.016           0.999       4.141e+00          1.7586
 242       3.692e+00      -1.448e+00       8.623e-01          -0.006          -0.015           1.000       3.775e+00          2.2715
 243       2.439e+00      -1.448e+00       8.268e-01          -0.106          -0.016           0.994       3.209e+00          2.8164
 244       1.403e+00      -1.448e+00       6.889e-01          -0.232          -0.019           0.973       2.490e+00          3.4457
 245       6.452e-01      -1.448e+00       4.869e-01          -0.372          -0.024           0.928       1.629e+00          4.4830
 246       2.093e-01      -1.448e+00       3.081e-01          -0.439          -0.027           0.898       5.723e-01          9.3421
Strip 20
 247       1.225e+01       1.448e+00       1.060e-01           0.130           0.023           0.991       5.184e-01          0.1552
 248       1.198e+01       1.448e+00       1.414e-01           0.136           0.024           0.990       1.526e+00          0.3097
 249       1.138e+01       1.448e+00       2.242e-01           0.138           0.024           0.990       2.446e+00          0.4971
 250       1.048e+01       1.448e+00       3.481e-01           0.132           0.023           0.991       3.220e+00          0.7145
 251       9.326e+00       1.448e+00       4.949e-01           0.112           0.021           0.994       3.799e+00          0.9278
 252       7.991e+00       1.448e+00       6.363e-01           0.087           0.019           0.996       4.156e+00          1.1538
 253       6.551e+00       1.448e+00       7.538e-01           0.063           0.017           0.998       4.272e+00          1.4323
 254       5.090e+00       1.448e+00       8.339e-01           0.028           0.016           0.999       4.141e+00          1.7586
 255       3.692e+00       1.448e+00       8.623e-01          -0.006           0.015           1.000       3.775e+00          2.2715
 256       2.439e+00       1.448e+00       8.268e-01          -0.106           0.016           0.994       3.209e+00          2.8164
 257       1.403e+00       1.448e+00       6.889e-01          -0.232           0.019           0.973       2.490e+00          3.4457
 258       6.452e-01       1.448e+00       4.869e-01          -0.372           0.024           0.928       1.629e+00          4.4830
 259       2.093e-01       1.448e+00       3.081e-01          -0.439           0.027           0.898       5.723e-01          9.3421
Strip 21
 260       1.178e+01       4.334e+00       1.006e-01           0.130           0.023           0.991       4.888e-01          0.1629
 261       1.153e+01       4.334e+00       1.342e-01           0.136           0.024           0.990       1.439e+00          0.3230
 262       1.096e+01       4.334e+00       2.129e-01           0.138           0.024           0.990       2.306e+00          0.5162
 263       1.011e+01       4.334e+00       3.304e-01           0.132           0.023           0.991       3.036e+00          0.7389
 264       9.012e+00       4.334e+00       4.698e-01           0.112           0.021           0.994       3.582e+00          0.9571
 265       7.745e+00       4.334e+00       6.041e-01           0.087           0.019           0.996       3.918e+00          1.1879
 266       6.378e+00       4.334e+00       7.156e-01           0.063           0.017           0.998       4.028e+00          1.4719
 267       4.990e+00       4.334e+00       7.916e-01           0.028           0.016           0.999       3.905e+00          1.8060
 268       3.663e+00       4.334e+00       8.186e-01          -0.006           0.015           1.000       3.560e+00          2.3319
 269       2.473e+00       4.334e+00       7.849e-01          -0.106           0.016           0.994       3.026e+00          2.8993
 270       1.490e+00       4.334e+00       6.540e-01          -0.232           0.019           0.973       2.348e+00          3.5664
 271       7.708e-01       4.334e+00       4.623e-01          -0.372           0.024           0.928       1.536e+00          4.6792
 272       3.569e-01       4.334e+00       2.925e-01          -0.439           0.027           0.898       5.396e-01          9.8037
Strip 22
 273       1.133e+01       7.190e+00       9.529e-02           0.130           0.023           0.991       4.566e-01          0.1685
 274       1.109e+01       7.190e+00       1.271e-01           0.136           0.024           0.990       1.344e+00          0.3327
 275       1.055e+01       7.190e+00       2.016e-01           0.138           0.024           0.990       2.154e+00          0.5305
 276       9.738e+00       7.190e+00       3.130e-01           0.132           0.023           0.991       2.836e+00          0.7580
 277       8.702e+00       7.190e+00       4.450e-01           0.112           0.021           0.994       3.347e+00          0.9812
 278       7.501e+00       7.190e+00       5.722e-01           0.087           0.019           0.996       3.661e+00          1.2171
 279       6.206e+00       7.190e+00       6.778e-01           0.063           0.017           0.998       3.763e+00          1.5070
 280       4.892e+00       7.190e+00       7.498e-01           0.028           0.016           0.999       3.648e+00          1.8485
 281       3.635e+00       7.190e+00       7.754e-01          -0.006           0.015           1.000       3.325e+00          2.3849
 282       2.508e+00       7.190e+00       7.435e-01          -0.106           0.016           0.994       2.827e+00          2.9688
 283       1.576e+00       7.190e+00       6.195e-01          -0.232           0.019           0.973       2.193e+00          3.6627
 284       8.950e-01       7.190e+00       4.379e-01          -0.372           0.024           0.928       1.435e+00          4.8314
 285       5.030e-01       7.190e+00       2.771e-01          -0.439           0.027           0.898       5.041e-01         10.1591
Strip 23
 286       1.088e+01       9.997e+00       9.007e-02           0.130           0.023           0.991       4.227e-01          0.1728
 287       1.065e+01       9.997e+00       1.202e-01           0.136           0.024           0.990       1.245e+00          0.3402
 288       1.014e+01       9.997e+00       1.906e-01           0.138           0.024           0.990       1.994e+00          0.5417
 289       9.376e+00       9.997e+00       2.959e-01           0.132           0.023           0.991       2.625e+00          0.7731
 290       8.396e+00       9.997e+00       4.206e-01           0.112           0.021           0.994       3.098e+00          1.0006
 291       7.261e+00       9.997e+00       5.408e-01           0.087           0.019           0.996       3.388e+00          1.2411
 292       6.037e+00       9.997e+00       6.407e-01           0.063           0.017           0.998       3.483e+00          1.5362
 293       4.795e+00       9.997e+00       7.088e-01           0.028           0.016           0.999       3.377e+00          1.8841
 294       3.607e+00       9.997e+00       7.329e-01          -0.006           0.015           1.000       3.078e+00          2.4290
 295       2.541e+00       9.997e+00       7.028e-01          -0.106           0.016           0.994       2.617e+00          3.0261
 296       1.661e+00       9.997e+00       5.855e-01          -0.232           0.019           0.973       2.030e+00          3.7419
 297       1.017e+00       9.997e+00       4.139e-01          -0.372           0.024           0.928       1.328e+00          4.9566
 298       6.466e-01       9.997e+00       2.619e-01          -0.439           0.027           0.898       4.666e-01         10.4514
Strip 24
 299       1.044e+01       1.274e+01       8.498e-02           0.130           0.023           0.991       3.876e-01          0.1761
 300       1.023e+01       1.274e+01       1.134e-01           0.136           0.024           0.990       1.141e+00          0.3461
 301       9.746e+00       1.274e+01       1.798e-01           0.138           0.024           0.990       1.829e+00          0.5504
 302       9.022e+00       1.274e+01       2.791e-01           0.132           0.023           0.991       2.408e+00          0.7850
 303       8.098e+00       1.274e+01       3.969e-01           0.112           0.021           0.994       2.841e+00          1.0159
 304       7.028e+00       1.274e+01       5.103e-01           0.087           0.019           0.996       3.107e+00          1.2602
 305       5.873e+00       1.274e+01       6.045e-01           0.063           0.017           0.998       3.194e+00          1.5595
 306       4.701e+00       1.274e+01       6.687e-01           0.028           0.016           0.999       3.097e+00          1.9127
 307       3.579e+00       1.274e+01       6.915e-01          -0.006           0.015           1.000       2.823e+00          2.4645
 308       2.574e+00       1.274e+01       6.630e-01          -0.106           0.016           0.994       2.400e+00          3.0725
 309       1.744e+00       1.274e+01       5.524e-01          -0.232           0.019           0.973       1.862e+00          3.8063
 310       1.136e+00       1.274e+01       3.905e-01          -0.372           0.024           0.928       1.218e+00          5.0588
 311       7.867e-01       1.274e+01       2.471e-01          -0.439           0.027           0.898       4.279e-01         10.6907
Strip 25
 312       1.001e+01       1.539e+01       8.005e-02           0.130           0.023           0.991       3.521e-01          0.1786
 313       9.816e+00       1.539e+01       1.068e-01           0.136           0.024           0.990       1.037e+00          0.3504
 314       9.362e+00       1.539e+01       1.694e-01           0.138           0.024           0.990       1.661e+00          0.5569
 315       8.680e+00       1.539e+01       2.629e-01           0.132           0.023           0.991       2.187e+00          0.7938
 316       7.810e+00       1.539e+01       3.738e-01           0.112           0.021           0.994       2.581e+00          1.0273
 317       6.801e+00       1.539e+01       4.807e-01           0.087           0.019           0.996       2.823e+00          1.2745
 318       5.713e+00       1.539e+01       5.694e-01           0.063           0.017           0.998       2.902e+00          1.5771
 319       4.609e+00       1.539e+01       6.299e-01           0.028           0.016           0.999       2.813e+00          1.9344
 320       3.553e+00       1.539e+01       6.514e-01          -0.006           0.015           1.000       2.564e+00          2.4917
 321       2.606e+00       1.539e+01       6.246e-01          -0.106           0.016           0.994       2.180e+00          3.1084
 322       1.824e+00       1.539e+01       5.204e-01          -0.232           0.019           0.973       1.691e+00          3.8564
 323       1.252e+00       1.539e+01       3.678e-01          -0.372           0.024           0.928       1.107e+00          5.1388
 324       9.224e-01       1.539e+01       2.328e-01          -0.439           0.027           0.898       3.887e-01         10.8784
Strip 26
 325       9.607e+00       1.793e+01       7.531e-02           0.130           0.023           0.991       3.168e-01          0.1801
 326       9.420e+00       1.793e+01       1.005e-01           0.136           0.024           0.990       9.327e-01          0.3532
 327       8.993e+00       1.793e+01       1.594e-01           0.138           0.024           0.990       1.494e+00          0.5611
 328       8.352e+00       1.793e+01       2.474e-01           0.132           0.023           0.991       1.968e+00          0.7994
 329       7.533e+00       1.793e+01       3.517e-01           0.112           0.021           0.994       2.322e+00          1.0345
 330       6.584e+00       1.793e+01       4.522e-01           0.087           0.019           0.996       2.540e+00          1.2837
 331       5.560e+00       1.793e+01       5.357e-01           0.063           0.017           0.998       2.611e+00          1.5886
 332       4.521e+00       1.793e+01       5.926e-01           0.028           0.016           0.999       2.531e+00          1.9488
 333       3.528e+00       1.793e+01       6.128e-01          -0.006           0.015           1.000       2.307e+00          2.5102
 334       2.637e+00       1.793e+01       5.876e-01          -0.106           0.016           0.994       1.961e+00          3.1331
 335       1.901e+00       1.793e+01       4.896e-01          -0.232           0.019           0.973       1.522e+00          3.8916
 336       1.363e+00       1.793e+01       3.461e-01          -0.372           0.024           0.928       9.956e-01          5.1955
 337       1.053e+00       1.793e+01       2.190e-01          -0.439           0.027           0.898       3.497e-01         11.0120
Strip 27
 338       9.219e+00       2.036e+01       7.081e-02           0.130           0.023           0.991       2.822e-01          0.1807
 339       9.043e+00       2.036e+01       9.446e-02           0.136           0.024           0.990       8.307e-01          0.3542
 340       8.642e+00       2.036e+01       1.498e-01           0.138           0.024           0.990       1.331e+00          0.5626
 341       8.039e+00       2.036e+01       2.326e-01           0.132           0.023           0.991       1.753e+00          0.8015
 342       7.269e+00       2.036e+01       3.307e-01           0.112           0.021           0.994       2.068e+00          1.0373
 343       6.377e+00       2.036e+01       4.252e-01           0.087           0.019           0.996       2.262e+00          1.2872
 344       5.414e+00       2.036e+01       5.037e-01           0.063           0.017           0.998       2.325e+00          1.5932
 345       4.438e+00       2.036e+01       5.572e-01           0.028           0.016           0.999       2.254e+00          1.9550
 346       3.504e+00       2.036e+01       5.762e-01          -0.006           0.015           1.000       2.055e+00          2.5188
 347       2.666e+00       2.036e+01       5.525e-01          -0.106           0.016           0.994       1.747e+00          3.1455
 348       1.974e+00       2.036e+01       4.603e-01          -0.232           0.019           0.973       1.355e+00          3.9100
 349       1.468e+00       2.036e+01       3.254e-01          -0.372           0.024           0.928       8.868e-01          5.2261
 350       1.177e+00       2.036e+01       2.059e-01          -0.439           0.027           0.898       3.115e-01         11.0850
Strip 28
 351       8.854e+00       2.264e+01       6.656e-02           0.130           0.023           0.991       2.487e-01          0.1801
 352       8.688e+00       2.264e+01       8.880e-02           0.136           0.024           0.990       7.322e-01          0.3532
 353       8.311e+00       2.264e+01       1.408e-01           0.138           0.024           0.990       1.173e+00          0.5611
 354       7.744e+00       2.264e+01       2.186e-01           0.132           0.023           0.991       1.545e+00          0.7994
 355       7.020e+00       2.264e+01       3.108e-01           0.112           0.021           0.994       1.823e+00          1.0346
 356       6.182e+00       2.264e+01       3.997e-01           0.087           0.019           0.996       1.994e+00          1.2841
 357       5.277e+00       2.264e+01       4.735e-01           0.063           0.017           0.998       2.049e+00          1.5898
 358       4.359e+00       2.264e+01       5.237e-01           0.028           0.016           0.999       1.987e+00          1.9516
 359       3.481e+00       2.264e+01       5.416e-01          -0.006           0.015           1.000       1.811e+00          2.5158
 360       2.694e+00       2.264e+01       5.193e-01          -0.106           0.016           0.994       1.540e+00          3.1433
 361       2.043e+00       2.264e+01       4.327e-01          -0.232           0.019           0.973       1.194e+00          3.9089
 362       1.567e+00       2.264e+01       3.058e-01          -0.372           0.024           0.928       7.816e-01          5.2262
 363       1.294e+00       2.264e+01       1.935e-01          -0.439           0.027           0.898       2.745e-01         11.0870
Strip 29
 364       8.513e+00       2.477e+01       6.260e-02           0.130           0.023           0.991       2.167e-01          0.1781
 365       8.357e+00       2.477e+01       8.351e-02           0.136           0.024           0.990       6.381e-01          0.3497
 366       8.002e+00       2.477e+01       1.325e-01           0.138           0.024           0.990       1.022e+00          0.5558
 367       7.469e+00       2.477e+01       2.056e-01           0.132           0.023           0.991       1.346e+00          0.7921
 368       6.788e+00       2.477e+01       2.923e-01           0.112           0.021           0.994       1.588e+00          1.0251
 369       6.000e+00       2.477e+01       3.759e-01           0.087           0.019           0.996       1.737e+00          1.2725
 370       5.149e+00       2.477e+01       4.453e-01           0.063           0.017           0.998       1.786e+00          1.5762
 371       4.286e+00       2.477e+01       4.926e-01           0.028           0.016           0.999       1.731e+00          1.9363
 372       3.460e+00       2.477e+01       5.094e-01          -0.006           0.015           1.000       1.578e+00          2.4985
 373       2.719e+00       2.477e+01       4.884e-01          -0.106           0.016           0.994       1.342e+00          3.1232
 374       2.108e+00       2.477e+01       4.069e-01          -0.232           0.019           0.973       1.041e+00          3.8837
 375       1.660e+00       2.477e+01       2.876e-01          -0.372           0.024           0.928       6.811e-01          5.1892
 376       1.403e+00       2.477e+01       1.820e-01          -0.439           0.027           0.898       2.392e-01         11.0030
Strip 30
 377       8.199e+00       2.673e+01       5.895e-02           0.130           0.023           0.991       1.865e-01          0.1743
 378       8.052e+00       2.673e+01       7.865e-02           0.136           0.024           0.990       5.493e-01          0.3431
 379       7.718e+00       2.673e+01       1.247e-01           0.138           0.024           0.990       8.801e-01          0.5458
 380       7.216e+00       2.673e+01       1.936e-01           0.132           0.023           0.991       1.159e+00          0.7783
 381       6.575e+00       2.673e+01       2.753e-01           0.112           0.021           0.994       1.367e+00          1.0071
 382       5.832e+00       2.673e+01       3.540e-01           0.087           0.019           0.996       1.495e+00          1.2501
 383       5.031e+00       2.673e+01       4.193e-01           0.063           0.017           0.998       1.537e+00          1.5496
 384       4.218e+00       2.673e+01       4.639e-01           0.028           0.016           0.999       1.490e+00          1.9054
 385       3.440e+00       2.673e+01       4.797e-01          -0.006           0.015           1.000       1.359e+00          2.4629
 386       2.743e+00       2.673e+01       4.600e-01          -0.106           0.016           0.994       1.155e+00          3.0804
 387       2.167e+00       2.673e+01       3.832e-01          -0.232           0.019           0.973       8.960e-01          3.8286
 388       1.745e+00       2.673e+01       2.709e-01          -0.372           0.024           0.928       5.863e-01          5.1060
 389       1.503e+00       2.673e+01       1.714e-01          -0.439           0.027           0.898       2.059e-01         10.8125
Strip 31
 390       7.914e+00       2.851e+01       5.564e-02           0.130           0.023           0.991       1.583e-01          0.1684
 391       7.776e+00       2.851e+01       7.424e-02           0.136           0.024           0.990       4.661e-01          0.3326
 392       7.461e+00       2.851e+01       1.177e-01           0.138           0.024           0.990       7.469e-01          0.5299
 393       6.986e+00       2.851e+01       1.828e-01           0.132           0.023           0.991       9.833e-01          0.7562
 394       6.381e+00       2.851e+01       2.599e-01           0.112           0.021           0.994       1.160e+00          0.9779
 395       5.680e+00       2.851e+01       3.341e-01           0.087           0.019           0.996       1.269e+00          1.2135
 396       4.924e+00       2.851e+01       3.958e-01           0.063           0.017           0.998       1.305e+00          1.5058
 397       4.157e+00       2.851e+01       4.379e-01           0.028           0.016           0.999       1.265e+00          1.8543
 398       3.423e+00       2.851e+01       4.528e-01          -0.006           0.015           1.000       1.153e+00          2.4036
 399       2.764e+00       2.851e+01       4.342e-01          -0.106           0.016           0.994       9.801e-01          3.0085
 400       2.221e+00       2.851e+01       3.617e-01          -0.232           0.019           0.973       7.604e-01          3.7356
 401       1.823e+00       2.851e+01       2.557e-01          -0.372           0.024           0.928       4.976e-01          4.9650
 402       1.594e+00       2.851e+01       1.618e-01          -0.439           0.027           0.898       1.748e-01         10.4890
Strip 32
 403       7.661e+00       3.010e+01       5.270e-02           0.130           0.023           0.991       1.321e-01          0.1600
 404       7.530e+00       3.010e+01       7.031e-02           0.136           0.024           0.990       3.889e-01          0.3177
 405       7.231e+00       3.010e+01       1.115e-01           0.138           0.024           0.990       6.231e-01          0.5070
 406       6.782e+00       3.010e+01       1.731e-01           0.132           0.023           0.991       8.204e-01          0.7238
 407       6.209e+00       3.010e+01       2.461e-01           0.112           0.021           0.994       9.680e-01          0.9345
 408       5.545e+00       3.010e+01       3.164e-01           0.087           0.019           0.996       1.059e+00          1.1585
 409       4.829e+00       3.010e+01       3.749e-01           0.063           0.017           0.998       1.089e+00          1.4393
 410       4.102e+00       3.010e+01       4.147e-01           0.028           0.016           0.999       1.055e+00          1.7763
 411       3.407e+00       3.010e+01       4.288e-01          -0.006           0.015           1.000       9.619e-01          2.3130
 412       2.784e+00       3.010e+01       4.112e-01          -0.106           0.016           0.994       8.177e-01          2.8993
 413       2.269e+00       3.010e+01       3.426e-01          -0.232           0.019           0.973       6.344e-01          3.5947
 414       1.892e+00       3.010e+01       2.421e-01          -0.372           0.024           0.928       4.151e-01          4.7520
 415       1.675e+00       3.010e+01       1.532e-01          -0.439           0.027           0.898       1.458e-01         10.0009
Strip 33
 416       7.440e+00       3.148e+01       5.014e-02           0.130           0.023           0.991       1.078e-01          0.1492
 417       7.316e+00       3.148e+01       6.689e-02           0.136           0.024           0.990       3.174e-01          0.2984
 418       7.031e+00       3.148e+01       1.061e-01           0.138           0.024           0.990       5.086e-01          0.4767
 419       6.604e+00       3.148e+01       1.647e-01           0.132           0.023           0.991       6.697e-01          0.6799
 420       6.059e+00       3.148e+01       2.341e-01           0.112           0.021           0.994       7.902e-01          0.8739
 421       5.427e+00       3.148e+01       3.010e-01           0.087           0.019           0.996       8.643e-01          1.0799
 422       4.746e+00       3.148e+01       3.566e-01           0.063           0.017           0.998       8.885e-01          1.3431
 423       4.055e+00       3.148e+01       3.945e-01           0.028           0.016           0.999       8.613e-01          1.6629
 424       3.393e+00       3.148e+01       4.080e-01          -0.006           0.015           1.000       7.852e-01          2.1817
 425       2.800e+00       3.148e+01       3.912e-01          -0.106           0.016           0.994       6.675e-01          2.7421
 426       2.310e+00       3.148e+01       3.259e-01          -0.232           0.019           0.973       5.179e-01          3.3940
 427       1.952e+00       3.148e+01       2.304e-01          -0.372           0.024           0.928       3.388e-01          4.4512
 428       1.745e+00       3.148e+01       1.458e-01          -0.439           0.027           0.898       1.190e-01          9.3141
Strip 34
 429       7.254e+00       3.264e+01       4.797e-02           0.130           0.023           0.991       8.538e-02          0.1374
 430       7.135e+00       3.264e+01       6.400e-02           0.136           0.024           0.990       2.514e-01          0.2771
 431       6.863e+00       3.264e+01       1.015e-01           0.138           0.024           0.990       4.028e-01          0.4417
 432       6.454e+00       3.264e+01       1.576e-01           0.132           0.023           0.991       5.304e-01          0.6259
 433       5.932e+00       3.264e+01       2.240e-01           0.112           0.021           0.994       6.258e-01          0.7950
 434       5.328e+00       3.264e+01       2.881e-01           0.087           0.019           0.996       6.845e-01          0.9731
 435       4.676e+00       3.264e+01       3.413e-01           0.063           0.017           0.998       7.037e-01          1.2091
 436       4.014e+00       3.264e+01       3.775e-01           0.028           0.016           0.999       6.821e-01          1.5036
 437       3.382e+00       3.264e+01       3.904e-01          -0.006           0.015           1.000       6.218e-01          1.9977
 438       2.814e+00       3.264e+01       3.743e-01          -0.106           0.016           0.994       5.286e-01          2.5248
 439       2.345e+00       3.264e+01       3.119e-01          -0.232           0.019           0.973       4.101e-01          3.1210
 440       2.002e+00       3.264e+01       2.204e-01          -0.372           0.024           0.928       2.684e-01          4.0475
 441       1.805e+00       3.264e+01       1.395e-01          -0.439           0.027           0.898       9.426e-02          8.3984
Strip 35
 442       7.104e+00       3.358e+01       4.623e-02           0.130           0.023           0.991       6.458e-02          0.1292
 443       6.989e+00       3.358e+01       6.167e-02           0.136           0.024           0.990       1.901e-01          0.2611
 444       6.727e+00       3.358e+01       9.781e-02           0.138           0.024           0.990       3.047e-01          0.4109
 445       6.333e+00       3.358e+01       1.518e-01           0.132           0.023           0.991       4.011e-01          0.5691
 446       5.830e+00       3.358e+01       2.159e-01           0.112           0.021           0.994       4.733e-01          0.7000
 447       5.248e+00       3.358e+01       2.776e-01           0.087           0.019           0.996       5.177e-01          0.8352
 448       4.620e+00       3.358e+01       3.288e-01           0.063           0.017           0.998       5.322e-01          1.0303
 449       3.982e+00       3.358e+01       3.638e-01           0.028           0.016           0.999       5.159e-01          1.2879
 450       3.372e+00       3.358e+01       3.761e-01          -0.006           0.015           1.000       4.703e-01          1.7482
 451       2.825e+00       3.358e+01       3.607e-01          -0.106           0.016           0.994       3.998e-01          2.2339
 452       2.374e+00       3.358e+01       3.005e-01          -0.232           0.019           0.973       3.102e-01          2.7637
 453       2.043e+00       3.358e+01       2.124e-01          -0.372           0.024           0.928       2.030e-01          3.5310
 454       1.853e+00       3.358e+01       1.344e-01          -0.439           0.027           0.898       7.129e-02          7.2401
Strip 36
 455       6.990e+00       3.429e+01       4.490e-02           0.130           0.023           0.991       4.512e-02          0.1373
 456       6.878e+00       3.429e+01       5.991e-02           0.136           0.024           0.990       1.328e-01          0.2708
 457       6.624e+00       3.429e+01       9.501e-02           0.138           0.024           0.990       2.129e-01          0.4066
 458       6.241e+00       3.429e+01       1.475e-01           0.132           0.023           0.991       2.803e-01          0.5240
 459       5.753e+00       3.429e+01       2.097e-01           0.112           0.021           0.994       3.307e-01          0.5939
 460       5.187e+00       3.429e+01       2.696e-01           0.087           0.019           0.996       3.617e-01          0.6658
 461       4.577e+00       3.429e+01       3.194e-01           0.063           0.017           0.998       3.718e-01          0.8049
 462       3.958e+00       3.429e+01       3.534e-01           0.028           0.016           0.999       3.604e-01          1.0126
 463       3.365e+00       3.429e+01       3.654e-01          -0.006           0.015           1.000       3.286e-01          1.4262
 464       2.834e+00       3.429e+01       3.504e-01          -0.106           0.016           0.994       2.793e-01          1.8598
 465       2.395e+00       3.429e+01       2.919e-01          -0.232           0.019           0.973       2.167e-01          2.3135
 466       2.074e+00       3.429e+01       2.063e-01          -0.372           0.024           0.928       1.418e-01          2.9016
 467       1.889e+00       3.429e+01       1.306e-01          -0.439           0.027           0.898       4.981e-02          5.8577
Strip 37
 468       6.914e+00       3.477e+01       4.402e-02           0.130           0.023           0.991       2.666e-02          0.2060
 469       6.804e+00       3.477e+01       5.872e-02           0.136           0.024           0.990       7.849e-02          0.3668
 470       6.555e+00       3.477e+01       9.314e-02           0.138           0.024           0.990       1.258e-01          0.4727
 471       6.180e+00       3.477e+01       1.446e-01           0.132           0.023           0.991       1.656e-01          0.5055
 472       5.701e+00       3.477e+01       2.056e-01           0.112           0.021           0.994       1.954e-01          0.4847
 473       5.146e+00       3.477e+01       2.643e-01           0.087           0.019           0.996       2.137e-01          0.4727
 474       4.548e+00       3.477e+01       3.131e-01           0.063           0.017           0.998       2.197e-01          0.5424
 475       3.941e+00       3.477e+01       3.464e-01           0.028           0.016           0.999       2.130e-01          0.6926
 476       3.360e+00       3.477e+01       3.582e-01          -0.006           0.015           1.000       1.941e-01          1.0437
 477       2.840e+00       3.477e+01       3.434e-01          -0.106           0.016           0.994       1.650e-01          1.4164
 478       2.410e+00       3.477e+01       2.861e-01          -0.232           0.019           0.973       1.281e-01          1.7775
 479       2.095e+00       3.477e+01       2.023e-01          -0.372           0.024           0.928       8.378e-02          2.1733
 480       1.914e+00       3.477e+01       1.280e-01          -0.439           0.027           0.898       2.943e-02          4.3237
Strip 38
 481       6.875e+00       3.501e+01       4.357e-02           0.130           0.023           0.991       8.816e-03          0.5012
 482       6.767e+00       3.501e+01       5.813e-02           0.136           0.024           0.990       2.596e-02          0.6466
 483       6.520e+00       3.501e+01       9.220e-02           0.138           0.024           0.990       4.159e-02          0.6243
 484       6.149e+00       3.501e+01       1.431e-01           0.132           0.023           0.991       5.476e-02          0.5010
 485       5.675e+00       3.501e+01       2.035e-01           0.112           0.021           0.994       6.462e-02          0.4315
 486       5.126e+00       3.501e+01       2.616e-01           0.087           0.019           0.996       7.068e-02          0.3207
 487       4.534e+00       3.501e+01       3.100e-01           0.063           0.017           0.998       7.266e-02          0.2885
 488       3.933e+00       3.501e+01       3.429e-01           0.028           0.016           0.999       7.043e-02          0.3710
 489       3.358e+00       3.501e+01       3.546e-01          -0.006           0.015           1.000       6.421e-02          0.6592
 490       2.843e+00       3.501e+01       3.400e-01          -0.106           0.016           0.994       5.458e-02          0.9956
 491       2.417e+00       3.501e+01       2.833e-01          -0.232           0.019           0.973       4.235e-02          1.2936
 492       2.105e+00       3.501e+01       2.002e-01          -0.372           0.024           0.928       2.771e-02          1.4886
 493       1.926e+00       3.501e+01       1.267e-01          -0.439           0.027           0.898       9.733e-03          2.8115










