xflr5 v6.57

Plane Name
T1-10.0 m/s-Panel-Inviscid
QInf  =   10.000000 m/s
Alpha =   -1.000000
Beta  =    0.000°
Phi   =    0.000°
Ctrl  =    0.000
CL    =   -0.070662
Cy    =   -0.000000
Cd    =    0.000343     ICd   =    0.000343     PCd   =    0.000000
Cl   = -4.77963e-07
Cm   =    0.034295
ICn   =   -0.000002     PCn   =   -0.000002 
XCP   =    2.703750     YCP   =   -0.000160     ZCP   =   -1.511763  
XNP   =    0.000000
Bending = -1223.673061

Main Wing
  y-span        Chord      Ai         Cl        PCd          ICd        CmGeom    CmAirf@chord/4    XTrtop    XTrBot      XCP       BM
  -11.7894     2.8159     0.463   -0.017065    0.000000    0.000138    0.042827    0.001020     0.0000    0.0000    0.2786    0.0000
  -11.7088     2.8492     0.393   -0.028830    0.000000    0.000198    0.050982    0.000508     0.0000    0.0000    0.2583   -0.0097
  -11.5483     2.9155     0.358   -0.040315    0.000000    0.000252    0.055336   -0.002100     0.0000    0.0000    0.1957   -0.1286
  -11.3089     3.0145     0.335   -0.050380    0.000000    0.000294    0.062937   -0.002740     0.0000    0.0000    0.1914   -0.6579
  -10.9923     3.1454     0.314   -0.058708    0.000000    0.000322    0.068907   -0.002691     0.0000    0.0000    0.1996   -2.1944
  -10.6005     3.3074     0.297   -0.065238    0.000000    0.000338    0.071836   -0.002410     0.0000    0.0000    0.2085   -5.6983
  -10.1364     3.4993     0.282   -0.070074    0.000000    0.000345    0.071748   -0.002086     0.0000    0.0000    0.2157   -12.5311
   -9.6030     3.7198     0.270   -0.073413    0.000000    0.000346    0.069224   -0.001794     0.0000    0.0000    0.2211   -24.4646
   -9.0040     3.9674     0.262   -0.075488    0.000000    0.000345    0.064987   -0.001561     0.0000    0.0000    0.2249   -43.6598
   -8.3435     4.2405     0.258   -0.076527    0.000000    0.000344    0.059699   -0.001390     0.0000    0.0000    0.2274   -72.6195
   -7.6260     4.5372     0.256   -0.076732    0.000000    0.000343    0.053892   -0.001271     0.0000    0.0000    0.2290   -114.1145
   -6.8564     4.8553     0.257   -0.076268    0.000000    0.000343    0.047955   -0.001193     0.0000    0.0000    0.2299   -171.0855
   -6.0400     5.1929     0.261   -0.075266    0.000000    0.000343    0.042152   -0.001146     0.0000    0.0000    0.2303   -246.5226
   -5.1823     5.5475     0.266   -0.073824    0.000000    0.000343    0.036654   -0.001115     0.0000    0.0000    0.2304   -343.3268
   -4.2892     5.9167     0.272   -0.072017    0.000000    0.000342    0.031562   -0.001088     0.0000    0.0000    0.2304   -464.1569
   -3.3668     6.2980     0.279   -0.069900    0.000000    0.000340    0.026935   -0.001048     0.0000    0.0000    0.2305   -611.2710
   -2.4214     6.6889     0.286   -0.067513    0.000000    0.000337    0.022809   -0.000968     0.0000    0.0000    0.2311   -786.3690
   -1.4595     7.0866     0.294   -0.064884    0.000000    0.000333    0.019216   -0.000804     0.0000    0.0000    0.2330   -990.4473
   -0.4876     7.4884     0.302   -0.062020    0.000000    0.000327    0.016227   -0.000443     0.0000    0.0000    0.2384   -1223.6731
    0.4876     7.4884     0.302   -0.062020    0.000000    0.000327    0.016227   -0.000443     0.0000    0.0000    0.2384   -1223.6731
    1.4595     7.0866     0.294   -0.064884    0.000000    0.000333    0.019216   -0.000804     0.0000    0.0000    0.2330   -990.4473
    2.4214     6.6889     0.286   -0.067513    0.000000    0.000337    0.022809   -0.000968     0.0000    0.0000    0.2311   -786.3690
    3.3668     6.2980     0.279   -0.069900    0.000000    0.000340    0.026935   -0.001048     0.0000    0.0000    0.2305   -611.2710
    4.2892     5.9167     0.272   -0.072017    0.000000    0.000342    0.031562   -0.001088     0.0000    0.0000    0.2304   -464.1569
    5.1823     5.5475     0.266   -0.073824    0.000000    0.000343    0.036654   -0.001115     0.0000    0.0000    0.2304   -343.3268
    6.0400     5.1929     0.261   -0.075266    0.000000    0.000343    0.042152   -0.001146     0.0000    0.0000    0.2303   -246.5226
    6.8564     4.8553     0.257   -0.076268    0.000000    0.000343    0.047955   -0.001193     0.0000    0.0000    0.2299   -171.0855
    7.6260     4.5372     0.256   -0.076732    0.000000    0.000343    0.053892   -0.001271     0.0000    0.0000    0.2290   -114.1145
    8.3435     4.2405     0.258   -0.076527    0.000000    0.000344    0.059699   -0.001390     0.0000    0.0000    0.2274   -72.6195
    9.0040     3.9674     0.262   -0.075488    0.000000    0.000345    0.064987   -0.001561     0.0000    0.0000    0.2248   -43.6598
    9.6030     3.7198     0.270   -0.073413    0.000000    0.000346    0.069224   -0.001794     0.0000    0.0000    0.2211   -24.4646
   10.1364     3.4993     0.282   -0.070074    0.000000    0.000345    0.071747   -0.002086     0.0000    0.0000    0.2157   -12.5311
   10.6005     3.3074     0.297   -0.065238    0.000000    0.000338    0.071834   -0.002411     0.0000    0.0000    0.2085   -5.6983
   10.9923     3.1454     0.314   -0.058708    0.000000    0.000322    0.068901   -0.002692     0.0000    0.0000    0.1995   -2.1944
   11.3089     3.0145     0.335   -0.050380    0.000000    0.000294    0.062915   -0.002739     0.0000    0.0000    0.1914   -0.6579
   11.5483     2.9155     0.358   -0.040315    0.000000    0.000252    0.055303   -0.002080     0.0000    0.0000    0.1961   -0.1286
   11.7088     2.8492     0.393   -0.028830    0.000000    0.000198    0.050792    0.000499     0.0000    0.0000    0.2581   -0.0097
   11.7894     2.8159     0.463   -0.017065    0.000000    0.000138    0.042317    0.000920     0.0000    0.0000    0.2756    0.0000


Main Wing Cp Coefficients
 Panel     CtrlPt.x        CtrlPt.y        CtrlPt.z       Nx      Ny       Nz        Area       Cp
Main WingCp Coefficients
Strip 1
  13       5.971e+00      -1.179e+01      -4.614e-03           0.220          -0.032          -0.975       1.693e-03         -0.0026
  14       5.890e+00      -1.179e+01      -1.731e-02           0.133          -0.020          -0.991       4.899e-03         -0.0402
  15       5.734e+00      -1.179e+01      -3.752e-02           0.125          -0.019          -0.992       7.840e-03         -0.0335
  16       5.510e+00      -1.179e+01      -6.420e-02           0.114          -0.018          -0.993       1.032e-02         -0.0390
  17       5.233e+00      -1.179e+01      -9.401e-02           0.101          -0.017          -0.995       1.219e-02         -0.0782
  18       4.918e+00      -1.179e+01      -1.233e-01           0.085          -0.017          -0.996       1.334e-02         -0.1125
  19       4.583e+00      -1.179e+01      -1.479e-01           0.062          -0.018          -0.998       1.372e-02         -0.1454
  20       4.249e+00      -1.179e+01      -1.636e-01           0.031          -0.021          -0.999       1.330e-02         -0.1579
  21       3.934e+00      -1.179e+01      -1.662e-01          -0.016          -0.027          -1.000       1.213e-02         -0.2085
  22       3.657e+00      -1.179e+01      -1.532e-01          -0.084          -0.039          -0.996       1.029e-02         -0.2647
  23       3.433e+00      -1.179e+01      -1.242e-01          -0.186          -0.061          -0.981       7.931e-03         -0.2982
  24       3.277e+00      -1.179e+01      -8.139e-02          -0.375          -0.106          -0.921       5.271e-03         -0.3808
  25       3.196e+00      -1.179e+01      -2.845e-02          -0.793          -0.214          -0.570       2.893e-03          0.2148
  26       3.196e+00      -1.179e+01       2.845e-02          -0.793          -0.214           0.570       2.893e-03          0.3805
  27       3.277e+00      -1.179e+01       8.139e-02          -0.375          -0.106           0.921       5.271e-03         -0.2276
  28       3.433e+00      -1.179e+01       1.242e-01          -0.186          -0.061           0.981       7.931e-03         -0.2212
  29       3.657e+00      -1.179e+01       1.532e-01          -0.084          -0.039           0.996       1.029e-02         -0.2192
  30       3.934e+00      -1.179e+01       1.662e-01          -0.016          -0.027           1.000       1.213e-02         -0.1820
  31       4.249e+00      -1.179e+01       1.636e-01           0.031          -0.021           0.999       1.330e-02         -0.1373
  32       4.583e+00      -1.179e+01       1.479e-01           0.062          -0.018           0.998       1.372e-02         -0.1296
  33       4.918e+00      -1.179e+01       1.233e-01           0.085          -0.017           0.996       1.334e-02         -0.1033
  34       5.233e+00      -1.179e+01       9.401e-02           0.101          -0.017           0.995       1.219e-02         -0.0706
  35       5.510e+00      -1.179e+01       6.420e-02           0.114          -0.018           0.993       1.032e-02         -0.0320
  36       5.734e+00      -1.179e+01       3.752e-02           0.125          -0.019           0.992       7.840e-03         -0.0124
  37       5.890e+00      -1.179e+01       1.731e-02           0.133          -0.020           0.991       4.899e-03         -0.0110
  38       5.971e+00      -1.179e+01       4.614e-03           0.220          -0.032           0.975       1.693e-03          0.0147
Strip 2
  39       5.982e+00      -1.171e+01      -4.668e-03           0.220          -0.032          -0.975       5.126e-03          0.0823
  40       5.901e+00      -1.171e+01      -1.752e-02           0.133          -0.020          -0.991       1.484e-02          0.0218
  41       5.742e+00      -1.171e+01      -3.797e-02           0.125          -0.019          -0.992       2.374e-02         -0.0153
  42       5.516e+00      -1.171e+01      -6.496e-02           0.114          -0.018          -0.993       3.124e-02         -0.0425
  43       5.236e+00      -1.171e+01      -9.512e-02           0.101          -0.017          -0.995       3.691e-02         -0.0782
  44       4.917e+00      -1.171e+01      -1.247e-01           0.085          -0.017          -0.996       4.041e-02         -0.1164
  45       4.578e+00      -1.171e+01      -1.496e-01           0.062          -0.018          -0.998       4.155e-02         -0.1551
  46       4.240e+00      -1.171e+01      -1.655e-01           0.031          -0.021          -0.999       4.029e-02         -0.1870
  47       3.921e+00      -1.171e+01      -1.682e-01          -0.016          -0.027          -1.000       3.673e-02         -0.2455
  48       3.641e+00      -1.171e+01      -1.550e-01          -0.084          -0.039          -0.996       3.117e-02         -0.3135
  49       3.415e+00      -1.171e+01      -1.257e-01          -0.186          -0.061          -0.981       2.402e-02         -0.3787
  50       3.256e+00      -1.171e+01      -8.235e-02          -0.375          -0.106          -0.921       1.596e-02         -0.4219
  51       3.175e+00      -1.171e+01      -2.878e-02          -0.793          -0.214          -0.570       8.762e-03          0.2721
  52       3.175e+00      -1.171e+01       2.878e-02          -0.793          -0.214           0.570       8.762e-03          0.4882
  53       3.256e+00      -1.171e+01       8.235e-02          -0.375          -0.106           0.921       1.596e-02         -0.2223
  54       3.415e+00      -1.171e+01       1.257e-01          -0.186          -0.061           0.981       2.402e-02         -0.2775
  55       3.641e+00      -1.171e+01       1.550e-01          -0.084          -0.039           0.996       3.117e-02         -0.2561
  56       3.921e+00      -1.171e+01       1.682e-01          -0.016          -0.027           1.000       3.673e-02         -0.2121
  57       4.240e+00      -1.171e+01       1.655e-01           0.031          -0.021           0.999       4.029e-02         -0.1643
  58       4.578e+00      -1.171e+01       1.496e-01           0.062          -0.018           0.998       4.155e-02         -0.1395
  59       4.917e+00      -1.171e+01       1.247e-01           0.085          -0.017           0.996       4.041e-02         -0.1069
  60       5.236e+00      -1.171e+01       9.512e-02           0.101          -0.017           0.995       3.691e-02         -0.0699
  61       5.516e+00      -1.171e+01       6.496e-02           0.114          -0.018           0.993       3.124e-02         -0.0321
  62       5.742e+00      -1.171e+01       3.797e-02           0.125          -0.019           0.992       2.374e-02          0.0064
  63       5.901e+00      -1.171e+01       1.752e-02           0.133          -0.020           0.991       1.484e-02          0.0511
  64       5.982e+00      -1.171e+01       4.668e-03           0.220          -0.032           0.975       5.126e-03          0.1064
Strip 3
  65       6.005e+00      -1.155e+01      -4.777e-03           0.220          -0.032          -0.975       8.702e-03          0.1422
  66       5.921e+00      -1.155e+01      -1.792e-02           0.133          -0.020          -0.991       2.519e-02          0.0766
  67       5.759e+00      -1.155e+01      -3.885e-02           0.125          -0.019          -0.992       4.031e-02          0.0184
  68       5.528e+00      -1.155e+01      -6.648e-02           0.114          -0.018          -0.993       5.304e-02         -0.0338
  69       5.241e+00      -1.155e+01      -9.734e-02           0.101          -0.017          -0.995       6.266e-02         -0.0780
  70       4.915e+00      -1.155e+01      -1.276e-01           0.085          -0.017          -0.996       6.860e-02         -0.1226
  71       4.568e+00      -1.155e+01      -1.531e-01           0.062          -0.018          -0.998       7.054e-02         -0.1703
  72       4.222e+00      -1.155e+01      -1.693e-01           0.031          -0.021          -0.999       6.839e-02         -0.2233
  73       3.896e+00      -1.155e+01      -1.721e-01          -0.016          -0.027          -1.000       6.236e-02         -0.2918
  74       3.609e+00      -1.155e+01      -1.586e-01          -0.084          -0.039          -0.996       5.291e-02         -0.3677
  75       3.377e+00      -1.155e+01      -1.286e-01          -0.186          -0.061          -0.981       4.078e-02         -0.4368
  76       3.215e+00      -1.155e+01      -8.427e-02          -0.375          -0.106          -0.921       2.710e-02         -0.4331
  77       3.132e+00      -1.155e+01      -2.945e-02          -0.793          -0.214          -0.570       1.488e-02          0.3307
  78       3.132e+00      -1.155e+01       2.945e-02          -0.793          -0.214           0.570       1.488e-02          0.5956
  79       3.215e+00      -1.155e+01       8.427e-02          -0.375          -0.106           0.921       2.710e-02         -0.1787
  80       3.377e+00      -1.155e+01       1.286e-01          -0.186          -0.061           0.981       4.078e-02         -0.3026
  81       3.609e+00      -1.155e+01       1.586e-01          -0.084          -0.039           0.996       5.291e-02         -0.2918
  82       3.896e+00      -1.155e+01       1.721e-01          -0.016          -0.027           1.000       6.236e-02         -0.2469
  83       4.222e+00      -1.155e+01       1.693e-01           0.031          -0.021           0.999       6.839e-02         -0.1954
  84       4.568e+00      -1.155e+01       1.531e-01           0.062          -0.018           0.998       7.054e-02         -0.1527
  85       4.915e+00      -1.155e+01       1.276e-01           0.085          -0.017           0.996       6.860e-02         -0.1119
  86       5.241e+00      -1.155e+01       9.734e-02           0.101          -0.017           0.995       6.266e-02         -0.0706
  87       5.528e+00      -1.155e+01       6.648e-02           0.114          -0.018           0.993       5.304e-02         -0.0273
  88       5.759e+00      -1.155e+01       3.885e-02           0.125          -0.019           0.992       4.031e-02          0.0260
  89       5.921e+00      -1.155e+01       1.792e-02           0.133          -0.020           0.991       2.519e-02          0.0845
  90       6.005e+00      -1.155e+01       4.777e-03           0.220          -0.032           0.975       8.702e-03          0.1453
Strip 4
  91       6.039e+00      -1.131e+01      -4.939e-03           0.220          -0.032          -0.975       1.251e-02          0.1651
  92       5.952e+00      -1.131e+01      -1.853e-02           0.133          -0.020          -0.991       3.621e-02          0.0977
  93       5.785e+00      -1.131e+01      -4.017e-02           0.125          -0.019          -0.992       5.795e-02          0.0337
  94       5.546e+00      -1.131e+01      -6.873e-02           0.114          -0.018          -0.993       7.625e-02         -0.0286
  95       5.249e+00      -1.131e+01      -1.006e-01           0.101          -0.017          -0.995       9.008e-02         -0.0817
  96       4.911e+00      -1.131e+01      -1.320e-01           0.085          -0.017          -0.996       9.862e-02         -0.1336
  97       4.553e+00      -1.131e+01      -1.583e-01           0.062          -0.018          -0.998       1.014e-01         -0.1904
  98       4.195e+00      -1.131e+01      -1.751e-01           0.031          -0.021          -0.999       9.832e-02         -0.2561
  99       3.858e+00      -1.131e+01      -1.779e-01          -0.016          -0.027          -1.000       8.965e-02         -0.3321
 100       3.561e+00      -1.131e+01      -1.640e-01          -0.084          -0.039          -0.996       7.607e-02         -0.4092
 101       3.322e+00      -1.131e+01      -1.330e-01          -0.186          -0.061          -0.981       5.862e-02         -0.4687
 102       3.154e+00      -1.131e+01      -8.713e-02          -0.375          -0.106          -0.921       3.897e-02         -0.4461
 103       3.068e+00      -1.131e+01      -3.045e-02          -0.793          -0.214          -0.570       2.139e-02          0.3362
 104       3.068e+00      -1.131e+01       3.045e-02          -0.793          -0.214           0.570       2.139e-02          0.6324
 105       3.154e+00      -1.131e+01       8.713e-02          -0.375          -0.106           0.921       3.897e-02         -0.1541
 106       3.322e+00      -1.131e+01       1.330e-01          -0.186          -0.061           0.981       5.862e-02         -0.3070
 107       3.561e+00      -1.131e+01       1.640e-01          -0.084          -0.039           0.996       7.607e-02         -0.3141
 108       3.858e+00      -1.131e+01       1.779e-01          -0.016          -0.027           1.000       8.965e-02         -0.2743
 109       4.195e+00      -1.131e+01       1.751e-01           0.031          -0.021           0.999       9.832e-02         -0.2203
 110       4.553e+00      -1.131e+01       1.583e-01           0.062          -0.018           0.998       1.014e-01         -0.1679
 111       4.911e+00      -1.131e+01       1.320e-01           0.085          -0.017           0.996       9.862e-02         -0.1196
 112       5.249e+00      -1.131e+01       1.006e-01           0.101          -0.017           0.995       9.008e-02         -0.0726
 113       5.546e+00      -1.131e+01       6.873e-02           0.114          -0.018           0.993       7.625e-02         -0.0222
 114       5.785e+00      -1.131e+01       4.017e-02           0.125          -0.019           0.992       5.795e-02          0.0385
 115       5.952e+00      -1.131e+01       1.853e-02           0.133          -0.020           0.991       3.621e-02          0.1010
 116       6.039e+00      -1.131e+01       4.939e-03           0.220          -0.032           0.975       1.251e-02          0.1627
Strip 5
 117       6.083e+00      -1.099e+01      -5.154e-03           0.220          -0.032          -0.975       1.663e-02          0.1757
 118       5.993e+00      -1.099e+01      -1.934e-02           0.133          -0.020          -0.991       4.814e-02          0.1073
 119       5.818e+00      -1.099e+01      -4.191e-02           0.125          -0.019          -0.992       7.703e-02          0.0408
 120       5.569e+00      -1.099e+01      -7.172e-02           0.114          -0.018          -0.993       1.014e-01         -0.0266
 121       5.259e+00      -1.099e+01      -1.050e-01           0.101          -0.017          -0.995       1.197e-01         -0.0862
 122       4.907e+00      -1.099e+01      -1.377e-01           0.085          -0.017          -0.996       1.311e-01         -0.1449
 123       4.534e+00      -1.099e+01      -1.652e-01           0.062          -0.018          -0.998       1.348e-01         -0.2089
 124       4.160e+00      -1.099e+01      -1.827e-01           0.031          -0.021          -0.999       1.307e-01         -0.2815
 125       3.808e+00      -1.099e+01      -1.857e-01          -0.016          -0.027          -1.000       1.192e-01         -0.3604
 126       3.498e+00      -1.099e+01      -1.711e-01          -0.084          -0.039          -0.996       1.011e-01         -0.4344
 127       3.249e+00      -1.099e+01      -1.387e-01          -0.186          -0.061          -0.981       7.793e-02         -0.4865
 128       3.074e+00      -1.099e+01      -9.091e-02          -0.375          -0.106          -0.921       5.180e-02         -0.4578
 129       2.984e+00      -1.099e+01      -3.177e-02          -0.793          -0.214          -0.570       2.843e-02          0.3317
 130       2.984e+00      -1.099e+01       3.177e-02          -0.793          -0.214           0.570       2.843e-02          0.6501
 131       3.074e+00      -1.099e+01       9.091e-02          -0.375          -0.106           0.921       5.180e-02         -0.1393
 132       3.249e+00      -1.099e+01       1.387e-01          -0.186          -0.061           0.981       7.793e-02         -0.3045
 133       3.498e+00      -1.099e+01       1.711e-01          -0.084          -0.039           0.996       1.011e-01         -0.3233
 134       3.808e+00      -1.099e+01       1.857e-01          -0.016          -0.027           1.000       1.192e-01         -0.2905
 135       4.160e+00      -1.099e+01       1.827e-01           0.031          -0.021           0.999       1.307e-01         -0.2370
 136       4.534e+00      -1.099e+01       1.652e-01           0.062          -0.018           0.998       1.348e-01         -0.1804
 137       4.907e+00      -1.099e+01       1.377e-01           0.085          -0.017           0.996       1.311e-01         -0.1265
 138       5.259e+00      -1.099e+01       1.050e-01           0.101          -0.017           0.995       1.197e-01         -0.0743
 139       5.569e+00      -1.099e+01       7.172e-02           0.114          -0.018           0.993       1.014e-01         -0.0188
 140       5.818e+00      -1.099e+01       4.191e-02           0.125          -0.019           0.992       7.703e-02          0.0455
 141       5.993e+00      -1.099e+01       1.934e-02           0.133          -0.020           0.991       4.814e-02          0.1092
 142       6.083e+00      -1.099e+01       5.154e-03           0.220          -0.032           0.975       1.663e-02          0.1712
Strip 6
 143       6.139e+00      -1.060e+01      -5.419e-03           0.220          -0.032          -0.975       2.113e-02          0.1809
 144       6.044e+00      -1.060e+01      -2.033e-02           0.133          -0.020          -0.991       6.116e-02          0.1118
 145       5.860e+00      -1.060e+01      -4.407e-02           0.125          -0.019          -0.992       9.786e-02          0.0437
 146       5.598e+00      -1.060e+01      -7.541e-02           0.114          -0.018          -0.993       1.288e-01         -0.0266
 147       5.272e+00      -1.060e+01      -1.104e-01           0.101          -0.017          -0.995       1.521e-01         -0.0905
 148       4.902e+00      -1.060e+01      -1.448e-01           0.085          -0.017          -0.996       1.666e-01         -0.1540
 149       4.509e+00      -1.060e+01      -1.737e-01           0.062          -0.018          -0.998       1.713e-01         -0.2227
 150       4.116e+00      -1.060e+01      -1.921e-01           0.031          -0.021          -0.999       1.660e-01         -0.2987
 151       3.746e+00      -1.060e+01      -1.952e-01          -0.016          -0.027          -1.000       1.514e-01         -0.3781
 152       3.420e+00      -1.060e+01      -1.799e-01          -0.084          -0.039          -0.996       1.285e-01         -0.4494
 153       3.158e+00      -1.060e+01      -1.459e-01          -0.186          -0.061          -0.981       9.900e-02         -0.4978
 154       2.974e+00      -1.060e+01      -9.559e-02          -0.375          -0.106          -0.921       6.580e-02         -0.4674
 155       2.879e+00      -1.060e+01      -3.341e-02          -0.793          -0.214          -0.570       3.612e-02          0.3258
 156       2.879e+00      -1.060e+01       3.341e-02          -0.793          -0.214           0.570       3.612e-02          0.6603
 157       2.974e+00      -1.060e+01       9.559e-02          -0.375          -0.106           0.921       6.580e-02         -0.1303
 158       3.158e+00      -1.060e+01       1.459e-01          -0.186          -0.061           0.981       9.900e-02         -0.3014
 159       3.420e+00      -1.060e+01       1.799e-01          -0.084          -0.039           0.996       1.285e-01         -0.3263
 160       3.746e+00      -1.060e+01       1.952e-01          -0.016          -0.027           1.000       1.514e-01         -0.2984
 161       4.116e+00      -1.060e+01       1.921e-01           0.031          -0.021           0.999       1.660e-01         -0.2465
 162       4.509e+00      -1.060e+01       1.737e-01           0.062          -0.018           0.998       1.713e-01         -0.1884
 163       4.902e+00      -1.060e+01       1.448e-01           0.085          -0.017           0.996       1.666e-01         -0.1314
 164       5.272e+00      -1.060e+01       1.104e-01           0.101          -0.017           0.995       1.521e-01         -0.0756
 165       5.598e+00      -1.060e+01       7.541e-02           0.114          -0.018           0.993       1.288e-01         -0.0172
 166       5.860e+00      -1.060e+01       4.407e-02           0.125          -0.019           0.992       9.786e-02          0.0489
 167       6.044e+00      -1.060e+01       2.033e-02           0.133          -0.020           0.991       6.116e-02          0.1132
 168       6.139e+00      -1.060e+01       5.419e-03           0.220          -0.032           0.975       2.113e-02          0.1753
Strip 7
 169       6.204e+00      -1.014e+01      -5.734e-03           0.220          -0.032          -0.975       2.605e-02          0.1834
 170       6.104e+00      -1.014e+01      -2.151e-02           0.133          -0.020          -0.991       7.542e-02          0.1138
 171       5.909e+00      -1.014e+01      -4.663e-02           0.125          -0.019          -0.992       1.207e-01          0.0447
 172       5.632e+00      -1.014e+01      -7.979e-02           0.114          -0.018          -0.993       1.588e-01         -0.0275
 173       5.287e+00      -1.014e+01      -1.168e-01           0.101          -0.017          -0.995       1.876e-01         -0.0939
 174       4.896e+00      -1.014e+01      -1.532e-01           0.085          -0.017          -0.996       2.054e-01         -0.1605
 175       4.480e+00      -1.014e+01      -1.838e-01           0.062          -0.018          -0.998       2.112e-01         -0.2319
 176       4.064e+00      -1.014e+01      -2.033e-01           0.031          -0.021          -0.999       2.048e-01         -0.3094
 177       3.673e+00      -1.014e+01      -2.066e-01          -0.016          -0.027          -1.000       1.867e-01         -0.3885
 178       3.328e+00      -1.014e+01      -1.903e-01          -0.084          -0.039          -0.996       1.584e-01         -0.4583
 179       3.051e+00      -1.014e+01      -1.543e-01          -0.186          -0.061          -0.981       1.221e-01         -0.5052
 180       2.856e+00      -1.014e+01      -1.011e-01          -0.375          -0.106          -0.921       8.114e-02         -0.4745
 181       2.756e+00      -1.014e+01      -3.535e-02          -0.793          -0.214          -0.570       4.454e-02          0.3209
 182       2.756e+00      -1.014e+01       3.535e-02          -0.793          -0.214           0.570       4.454e-02          0.6664
 183       2.856e+00      -1.014e+01       1.011e-01          -0.375          -0.106           0.921       8.114e-02         -0.1245
 184       3.051e+00      -1.014e+01       1.543e-01          -0.186          -0.061           0.981       1.221e-01         -0.2990
 185       3.328e+00      -1.014e+01       1.903e-01          -0.084          -0.039           0.996       1.584e-01         -0.3268
 186       3.673e+00      -1.014e+01       2.066e-01          -0.016          -0.027           1.000       1.867e-01         -0.3015
 187       4.064e+00      -1.014e+01       2.033e-01           0.031          -0.021           0.999       2.048e-01         -0.2511
 188       4.480e+00      -1.014e+01       1.838e-01           0.062          -0.018           0.998       2.112e-01         -0.1928
 189       4.896e+00      -1.014e+01       1.532e-01           0.085          -0.017           0.996       2.054e-01         -0.1342
 190       5.287e+00      -1.014e+01       1.168e-01           0.101          -0.017           0.995       1.876e-01         -0.0765
 191       5.632e+00      -1.014e+01       7.979e-02           0.114          -0.018           0.993       1.588e-01         -0.0165
 192       5.909e+00      -1.014e+01       4.663e-02           0.125          -0.019           0.992       1.207e-01          0.0505
 193       6.104e+00      -1.014e+01       2.151e-02           0.133          -0.020           0.991       7.542e-02          0.1152
 194       6.204e+00      -1.014e+01       5.734e-03           0.220          -0.032           0.975       2.605e-02          0.1773
Strip 8
 195       6.279e+00      -9.603e+00      -6.095e-03           0.220          -0.032          -0.975       3.144e-02          0.1848
 196       6.173e+00      -9.603e+00      -2.287e-02           0.133          -0.020          -0.991       9.100e-02          0.1148
 197       5.966e+00      -9.603e+00      -4.957e-02           0.125          -0.019          -0.992       1.456e-01          0.0449
 198       5.671e+00      -9.603e+00      -8.481e-02           0.114          -0.018          -0.993       1.916e-01         -0.0283
 199       5.305e+00      -9.603e+00      -1.242e-01           0.101          -0.017          -0.995       2.264e-01         -0.0963
 200       4.888e+00      -9.603e+00      -1.628e-01           0.085          -0.017          -0.996       2.478e-01         -0.1646
 201       4.447e+00      -9.603e+00      -1.954e-01           0.062          -0.018          -0.998       2.548e-01         -0.2375
 202       4.005e+00      -9.603e+00      -2.161e-01           0.031          -0.021          -0.999       2.471e-01         -0.3156
 203       3.589e+00      -9.603e+00      -2.196e-01          -0.016          -0.027          -1.000       2.253e-01         -0.3945
 204       3.222e+00      -9.603e+00      -2.023e-01          -0.084          -0.039          -0.996       1.912e-01         -0.4633
 205       2.927e+00      -9.603e+00      -1.641e-01          -0.186          -0.061          -0.981       1.473e-01         -0.5095
 206       2.720e+00      -9.603e+00      -1.075e-01          -0.375          -0.106          -0.921       9.792e-02         -0.4789
 207       2.614e+00      -9.603e+00      -3.758e-02          -0.793          -0.214          -0.570       5.374e-02          0.3177
 208       2.614e+00      -9.603e+00       3.758e-02          -0.793          -0.214           0.570       5.374e-02          0.6700
 209       2.720e+00      -9.603e+00       1.075e-01          -0.375          -0.106           0.921       9.792e-02         -0.1209
 210       2.927e+00      -9.603e+00       1.641e-01          -0.186          -0.061           0.981       1.473e-01         -0.2971
 211       3.222e+00      -9.603e+00       2.023e-01          -0.084          -0.039           0.996       1.912e-01         -0.3263
 212       3.589e+00      -9.603e+00       2.196e-01          -0.016          -0.027           1.000       2.253e-01         -0.3025
 213       4.005e+00      -9.603e+00       2.161e-01           0.031          -0.021           0.999       2.471e-01         -0.2530
 214       4.447e+00      -9.603e+00       1.954e-01           0.062          -0.018           0.998       2.548e-01         -0.1947
 215       4.888e+00      -9.603e+00       1.628e-01           0.085          -0.017           0.996       2.478e-01         -0.1356
 216       5.305e+00      -9.603e+00       1.242e-01           0.101          -0.017           0.995       2.264e-01         -0.0769
 217       5.671e+00      -9.603e+00       8.481e-02           0.114          -0.018           0.993       1.916e-01         -0.0161
 218       5.966e+00      -9.603e+00       4.957e-02           0.125          -0.019           0.992       1.456e-01          0.0513
 219       6.173e+00      -9.603e+00       2.287e-02           0.133          -0.020           0.991       9.100e-02          0.1162
 220       6.279e+00      -9.603e+00       6.095e-03           0.220          -0.032           0.975       3.144e-02          0.1783
Strip 9
 221       6.364e+00      -9.004e+00      -6.501e-03           0.220          -0.032          -0.975       3.730e-02          0.1855
 222       6.250e+00      -9.004e+00      -2.439e-02           0.133          -0.020          -0.991       1.080e-01          0.1153
 223       6.030e+00      -9.004e+00      -5.287e-02           0.125          -0.019          -0.992       1.728e-01          0.0450
 224       5.715e+00      -9.004e+00      -9.046e-02           0.114          -0.018          -0.993       2.273e-01         -0.0289
 225       5.324e+00      -9.004e+00      -1.325e-01           0.101          -0.017          -0.995       2.685e-01         -0.0978
 226       4.880e+00      -9.004e+00      -1.737e-01           0.085          -0.017          -0.996       2.940e-01         -0.1670
 227       4.409e+00      -9.004e+00      -2.084e-01           0.062          -0.018          -0.998       3.023e-01         -0.2405
 228       3.938e+00      -9.004e+00      -2.305e-01           0.031          -0.021          -0.999       2.931e-01         -0.3189
 229       3.494e+00      -9.004e+00      -2.342e-01          -0.016          -0.027          -1.000       2.673e-01         -0.3975
 230       3.103e+00      -9.004e+00      -2.158e-01          -0.084          -0.039          -0.996       2.268e-01         -0.4658
 231       2.788e+00      -9.004e+00      -1.750e-01          -0.186          -0.061          -0.981       1.748e-01         -0.5116
 232       2.568e+00      -9.004e+00      -1.147e-01          -0.375          -0.106          -0.921       1.162e-01         -0.4808
 233       2.454e+00      -9.004e+00      -4.008e-02          -0.793          -0.214          -0.570       6.375e-02          0.3163
 234       2.454e+00      -9.004e+00       4.008e-02          -0.793          -0.214           0.570       6.375e-02          0.6719
 235       2.568e+00      -9.004e+00       1.147e-01          -0.375          -0.106           0.921       1.162e-01         -0.1187
 236       2.788e+00      -9.004e+00       1.750e-01          -0.186          -0.061           0.981       1.748e-01         -0.2957
 237       3.103e+00      -9.004e+00       2.158e-01          -0.084          -0.039           0.996       2.268e-01         -0.3256
 238       3.494e+00      -9.004e+00       2.342e-01          -0.016          -0.027           1.000       2.673e-01         -0.3024
 239       3.938e+00      -9.004e+00       2.305e-01           0.031          -0.021           0.999       2.931e-01         -0.2535
 240       4.409e+00      -9.004e+00       2.084e-01           0.062          -0.018           0.998       3.023e-01         -0.1953
 241       4.880e+00      -9.004e+00       1.737e-01           0.085          -0.017           0.996       2.940e-01         -0.1360
 242       5.324e+00      -9.004e+00       1.325e-01           0.101          -0.017           0.995       2.685e-01         -0.0770
 243       5.715e+00      -9.004e+00       9.046e-02           0.114          -0.018           0.993       2.273e-01         -0.0158
 244       6.030e+00      -9.004e+00       5.287e-02           0.125          -0.019           0.992       1.728e-01          0.0518
 245       6.250e+00      -9.004e+00       2.439e-02           0.133          -0.020           0.991       1.080e-01          0.1168
 246       6.364e+00      -9.004e+00       6.501e-03           0.220          -0.032           0.975       3.730e-02          0.1789
Strip 10
 247       6.457e+00      -8.343e+00      -6.948e-03           0.220          -0.032          -0.975       4.361e-02          0.1862
 248       6.336e+00      -8.343e+00      -2.607e-02           0.133          -0.020          -0.991       1.262e-01          0.1158
 249       6.100e+00      -8.343e+00      -5.651e-02           0.125          -0.019          -0.992       2.020e-01          0.0452
 250       5.763e+00      -8.343e+00      -9.669e-02           0.114          -0.018          -0.993       2.658e-01         -0.0290
 251       5.346e+00      -8.343e+00      -1.416e-01           0.101          -0.017          -0.995       3.140e-01         -0.0984
 252       4.871e+00      -8.343e+00      -1.856e-01           0.085          -0.017          -0.996       3.438e-01         -0.1680
 253       4.368e+00      -8.343e+00      -2.227e-01           0.062          -0.018          -0.998       3.535e-01         -0.2418
 254       3.864e+00      -8.343e+00      -2.463e-01           0.031          -0.021          -0.999       3.428e-01         -0.3202
 255       3.389e+00      -8.343e+00      -2.503e-01          -0.016          -0.027          -1.000       3.125e-01         -0.3986
 256       2.972e+00      -8.343e+00      -2.307e-01          -0.084          -0.039          -0.996       2.652e-01         -0.4665
 257       2.635e+00      -8.343e+00      -1.870e-01          -0.186          -0.061          -0.981       2.044e-01         -0.5118
 258       2.400e+00      -8.343e+00      -1.226e-01          -0.375          -0.106          -0.921       1.358e-01         -0.4806
 259       2.278e+00      -8.343e+00      -4.284e-02          -0.793          -0.214          -0.570       7.455e-02          0.3165
 260       2.278e+00      -8.343e+00       4.284e-02          -0.793          -0.214           0.570       7.455e-02          0.6726
 261       2.400e+00      -8.343e+00       1.226e-01          -0.375          -0.106           0.921       1.358e-01         -0.1177
 262       2.635e+00      -8.343e+00       1.870e-01          -0.186          -0.061           0.981       2.044e-01         -0.2948
 263       2.972e+00      -8.343e+00       2.307e-01          -0.084          -0.039           0.996       2.652e-01         -0.3248
 264       3.389e+00      -8.343e+00       2.503e-01          -0.016          -0.027           1.000       3.125e-01         -0.3020
 265       3.864e+00      -8.343e+00       2.463e-01           0.031          -0.021           0.999       3.428e-01         -0.2532
 266       4.368e+00      -8.343e+00       2.227e-01           0.062          -0.018           0.998       3.535e-01         -0.1952
 267       4.871e+00      -8.343e+00       1.856e-01           0.085          -0.017           0.996       3.438e-01         -0.1358
 268       5.346e+00      -8.343e+00       1.416e-01           0.101          -0.017           0.995       3.140e-01         -0.0767
 269       5.763e+00      -8.343e+00       9.669e-02           0.114          -0.018           0.993       2.658e-01         -0.0154
 270       6.100e+00      -8.343e+00       5.651e-02           0.125          -0.019           0.992       2.020e-01          0.0523
 271       6.336e+00      -8.343e+00       2.607e-02           0.133          -0.020           0.991       1.262e-01          0.1173
 272       6.457e+00      -8.343e+00       6.948e-03           0.220          -0.032           0.975       4.361e-02          0.1794
Strip 11
 273       6.558e+00      -7.626e+00      -7.434e-03           0.220          -0.032          -0.975       5.036e-02          0.1868
 274       6.428e+00      -7.626e+00      -2.789e-02           0.133          -0.020          -0.991       1.458e-01          0.1163
 275       6.176e+00      -7.626e+00      -6.046e-02           0.125          -0.019          -0.992       2.333e-01          0.0456
 276       5.816e+00      -7.626e+00      -1.035e-01           0.114          -0.018          -0.993       3.069e-01         -0.0288
 277       5.369e+00      -7.626e+00      -1.515e-01           0.101          -0.017          -0.995       3.626e-01         -0.0983
 278       4.862e+00      -7.626e+00      -1.986e-01           0.085          -0.017          -0.996       3.970e-01         -0.1681
 279       4.323e+00      -7.626e+00      -2.383e-01           0.062          -0.018          -0.998       4.082e-01         -0.2419
 280       3.784e+00      -7.626e+00      -2.635e-01           0.031          -0.021          -0.999       3.958e-01         -0.3202
 281       3.276e+00      -7.626e+00      -2.678e-01          -0.016          -0.027          -1.000       3.609e-01         -0.3983
 282       2.829e+00      -7.626e+00      -2.468e-01          -0.084          -0.039          -0.996       3.062e-01         -0.4658
 283       2.469e+00      -7.626e+00      -2.001e-01          -0.186          -0.061          -0.981       2.360e-01         -0.5105
 284       2.217e+00      -7.626e+00      -1.311e-01          -0.375          -0.106          -0.921       1.568e-01         -0.4785
 285       2.087e+00      -7.626e+00      -4.583e-02          -0.793          -0.214          -0.570       8.608e-02          0.3182
 286       2.087e+00      -7.626e+00       4.583e-02          -0.793          -0.214           0.570       8.608e-02          0.6723
 287       2.217e+00      -7.626e+00       1.311e-01          -0.375          -0.106           0.921       1.568e-01         -0.1175
 288       2.469e+00      -7.626e+00       2.001e-01          -0.186          -0.061           0.981       2.360e-01         -0.2942
 289       2.829e+00      -7.626e+00       2.468e-01          -0.084          -0.039           0.996       3.062e-01         -0.3241
 290       3.276e+00      -7.626e+00       2.678e-01          -0.016          -0.027           1.000       3.609e-01         -0.3013
 291       3.784e+00      -7.626e+00       2.635e-01           0.031          -0.021           0.999       3.958e-01         -0.2526
 292       4.323e+00      -7.626e+00       2.383e-01           0.062          -0.018           0.998       4.082e-01         -0.1947
 293       4.862e+00      -7.626e+00       1.986e-01           0.085          -0.017           0.996       3.970e-01         -0.1353
 294       5.369e+00      -7.626e+00       1.515e-01           0.101          -0.017           0.995       3.626e-01         -0.0762
 295       5.816e+00      -7.626e+00       1.035e-01           0.114          -0.018           0.993       3.069e-01         -0.0149
 296       6.176e+00      -7.626e+00       6.046e-02           0.125          -0.019           0.992       2.333e-01          0.0528
 297       6.428e+00      -7.626e+00       2.789e-02           0.133          -0.020           0.991       1.458e-01          0.1177
 298       6.558e+00      -7.626e+00       7.434e-03           0.220          -0.032           0.975       5.036e-02          0.1799
Strip 12
 299       6.667e+00      -6.856e+00      -7.955e-03           0.220          -0.032          -0.975       5.747e-02          0.1874
 300       6.528e+00      -6.856e+00      -2.985e-02           0.133          -0.020          -0.991       1.664e-01          0.1170
 301       6.258e+00      -6.856e+00      -6.470e-02           0.125          -0.019          -0.992       2.662e-01          0.0463
 302       5.873e+00      -6.856e+00      -1.107e-01           0.114          -0.018          -0.993       3.503e-01         -0.0282
 303       5.394e+00      -6.856e+00      -1.621e-01           0.101          -0.017          -0.995       4.138e-01         -0.0977
 304       4.851e+00      -6.856e+00      -2.125e-01           0.085          -0.017          -0.996       4.531e-01         -0.1674
 305       4.274e+00      -6.856e+00      -2.550e-01           0.062          -0.018          -0.998       4.659e-01         -0.2411
 306       3.698e+00      -6.856e+00      -2.820e-01           0.031          -0.021          -0.999       4.517e-01         -0.3192
 307       3.155e+00      -6.856e+00      -2.866e-01          -0.016          -0.027          -1.000       4.118e-01         -0.3969
 308       2.676e+00      -6.856e+00      -2.641e-01          -0.084          -0.039          -0.996       3.495e-01         -0.4639
 309       2.291e+00      -6.856e+00      -2.141e-01          -0.186          -0.061          -0.981       2.693e-01         -0.5079
 310       2.021e+00      -6.856e+00      -1.403e-01          -0.375          -0.106          -0.921       1.790e-01         -0.4749
 311       1.882e+00      -6.856e+00      -4.905e-02          -0.793          -0.214          -0.570       9.825e-02          0.3212
 312       1.882e+00      -6.856e+00       4.905e-02          -0.793          -0.214           0.570       9.825e-02          0.6714
 313       2.021e+00      -6.856e+00       1.403e-01          -0.375          -0.106           0.921       1.790e-01         -0.1179
 314       2.291e+00      -6.856e+00       2.141e-01          -0.186          -0.061           0.981       2.693e-01         -0.2937
 315       2.676e+00      -6.856e+00       2.641e-01          -0.084          -0.039           0.996       3.495e-01         -0.3234
 316       3.155e+00      -6.856e+00       2.866e-01          -0.016          -0.027           1.000       4.118e-01         -0.3004
 317       3.698e+00      -6.856e+00       2.820e-01           0.031          -0.021           0.999       4.517e-01         -0.2517
 318       4.274e+00      -6.856e+00       2.550e-01           0.062          -0.018           0.998       4.659e-01         -0.1938
 319       4.851e+00      -6.856e+00       2.125e-01           0.085          -0.017           0.996       4.531e-01         -0.1345
 320       5.394e+00      -6.856e+00       1.621e-01           0.101          -0.017           0.995       4.138e-01         -0.0755
 321       5.873e+00      -6.856e+00       1.107e-01           0.114          -0.018           0.993       3.503e-01         -0.0142
 322       6.258e+00      -6.856e+00       6.470e-02           0.125          -0.019           0.992       2.662e-01          0.0534
 323       6.528e+00      -6.856e+00       2.985e-02           0.133          -0.020           0.991       1.664e-01          0.1183
 324       6.667e+00      -6.856e+00       7.955e-03           0.220          -0.032           0.975       5.747e-02          0.1803
Strip 13
 325       6.782e+00      -6.040e+00      -8.508e-03           0.220          -0.032          -0.975       6.488e-02          0.1880
 326       6.633e+00      -6.040e+00      -3.193e-02           0.133          -0.020          -0.991       1.878e-01          0.1177
 327       6.345e+00      -6.040e+00      -6.920e-02           0.125          -0.019          -0.992       3.005e-01          0.0471
 328       5.933e+00      -6.040e+00      -1.184e-01           0.114          -0.018          -0.993       3.955e-01         -0.0272
 329       5.421e+00      -6.040e+00      -1.734e-01           0.101          -0.017          -0.995       4.672e-01         -0.0966
 330       4.840e+00      -6.040e+00      -2.273e-01           0.085          -0.017          -0.996       5.115e-01         -0.1661
 331       4.223e+00      -6.040e+00      -2.727e-01           0.062          -0.018          -0.998       5.259e-01         -0.2396
 332       3.607e+00      -6.040e+00      -3.016e-01           0.031          -0.021          -0.999       5.099e-01         -0.3173
 333       3.026e+00      -6.040e+00      -3.065e-01          -0.016          -0.027          -1.000       4.649e-01         -0.3945
 334       2.514e+00      -6.040e+00      -2.825e-01          -0.084          -0.039          -0.996       3.945e-01         -0.4609
 335       2.102e+00      -6.040e+00      -2.290e-01          -0.186          -0.061          -0.981       3.040e-01         -0.5042
 336       1.813e+00      -6.040e+00      -1.501e-01          -0.375          -0.106          -0.921       2.021e-01         -0.4698
 337       1.665e+00      -6.040e+00      -5.246e-02          -0.793          -0.214          -0.570       1.109e-01          0.3253
 338       1.665e+00      -6.040e+00       5.246e-02          -0.793          -0.214           0.570       1.109e-01          0.6698
 339       1.813e+00      -6.040e+00       1.501e-01          -0.375          -0.106           0.921       2.021e-01         -0.1187
 340       2.102e+00      -6.040e+00       2.290e-01          -0.186          -0.061           0.981       3.040e-01         -0.2934
 341       2.514e+00      -6.040e+00       2.825e-01          -0.084          -0.039           0.996       3.945e-01         -0.3225
 342       3.026e+00      -6.040e+00       3.065e-01          -0.016          -0.027           1.000       4.649e-01         -0.2992
 343       3.607e+00      -6.040e+00       3.016e-01           0.031          -0.021           0.999       5.099e-01         -0.2506
 344       4.223e+00      -6.040e+00       2.727e-01           0.062          -0.018           0.998       5.259e-01         -0.1928
 345       4.840e+00      -6.040e+00       2.273e-01           0.085          -0.017           0.996       5.115e-01         -0.1336
 346       5.421e+00      -6.040e+00       1.734e-01           0.101          -0.017           0.995       4.672e-01         -0.0746
 347       5.933e+00      -6.040e+00       1.184e-01           0.114          -0.018           0.993       3.955e-01         -0.0135
 348       6.345e+00      -6.040e+00       6.920e-02           0.125          -0.019           0.992       3.005e-01          0.0541
 349       6.633e+00      -6.040e+00       3.193e-02           0.133          -0.020           0.991       1.878e-01          0.1189
 350       6.782e+00      -6.040e+00       8.508e-03           0.220          -0.032           0.975       6.488e-02          0.1808
Strip 14
 351       6.903e+00      -5.182e+00      -9.089e-03           0.220          -0.032          -0.975       7.249e-02          0.1887
 352       6.744e+00      -5.182e+00      -3.411e-02           0.133          -0.020          -0.991       2.098e-01          0.1185
 353       6.436e+00      -5.182e+00      -7.392e-02           0.125          -0.019          -0.992       3.358e-01          0.0481
 354       5.996e+00      -5.182e+00      -1.265e-01           0.114          -0.018          -0.993       4.418e-01         -0.0260
 355       5.449e+00      -5.182e+00      -1.852e-01           0.101          -0.017          -0.995       5.219e-01         -0.0951
 356       4.829e+00      -5.182e+00      -2.428e-01           0.085          -0.017          -0.996       5.714e-01         -0.1644
 357       4.170e+00      -5.182e+00      -2.914e-01           0.062          -0.018          -0.998       5.876e-01         -0.2374
 358       3.511e+00      -5.182e+00      -3.222e-01           0.031          -0.021          -0.999       5.697e-01         -0.3145
 359       2.890e+00      -5.182e+00      -3.275e-01          -0.016          -0.027          -1.000       5.194e-01         -0.3911
 360       2.344e+00      -5.182e+00      -3.017e-01          -0.084          -0.039          -0.996       4.408e-01         -0.4569
 361       1.904e+00      -5.182e+00      -2.447e-01          -0.186          -0.061          -0.981       3.397e-01         -0.4991
 362       1.595e+00      -5.182e+00      -1.603e-01          -0.375          -0.106          -0.921       2.258e-01         -0.4631
 363       1.436e+00      -5.182e+00      -5.604e-02          -0.793          -0.214          -0.570       1.239e-01          0.3305
 364       1.436e+00      -5.182e+00       5.604e-02          -0.793          -0.214           0.570       1.239e-01          0.6679
 365       1.595e+00      -5.182e+00       1.603e-01          -0.375          -0.106           0.921       2.258e-01         -0.1197
 366       1.904e+00      -5.182e+00       2.447e-01          -0.186          -0.061           0.981       3.397e-01         -0.2929
 367       2.344e+00      -5.182e+00       3.017e-01          -0.084          -0.039           0.996       4.408e-01         -0.3213
 368       2.890e+00      -5.182e+00       3.275e-01          -0.016          -0.027           1.000       5.194e-01         -0.2978
 369       3.511e+00      -5.182e+00       3.222e-01           0.031          -0.021           0.999       5.697e-01         -0.2491
 370       4.170e+00      -5.182e+00       2.914e-01           0.062          -0.018           0.998       5.876e-01         -0.1914
 371       4.829e+00      -5.182e+00       2.428e-01           0.085          -0.017           0.996       5.714e-01         -0.1324
 372       5.449e+00      -5.182e+00       1.852e-01           0.101          -0.017           0.995       5.219e-01         -0.0735
 373       5.996e+00      -5.182e+00       1.265e-01           0.114          -0.018           0.993       4.418e-01         -0.0126
 374       6.436e+00      -5.182e+00       7.392e-02           0.125          -0.019           0.992       3.358e-01          0.0549
 375       6.744e+00      -5.182e+00       3.411e-02           0.133          -0.020           0.991       2.098e-01          0.1195
 376       6.903e+00      -5.182e+00       9.089e-03           0.220          -0.032           0.975       7.249e-02          0.1814
Strip 15
 377       7.029e+00      -4.289e+00      -9.694e-03           0.220          -0.032          -0.975       8.017e-02          0.1895
 378       6.860e+00      -4.289e+00      -3.638e-02           0.133          -0.020          -0.991       2.321e-01          0.1194
 379       6.531e+00      -4.289e+00      -7.884e-02           0.125          -0.019          -0.992       3.713e-01          0.0492
 380       6.061e+00      -4.289e+00      -1.349e-01           0.114          -0.018          -0.993       4.887e-01         -0.0246
 381       5.478e+00      -4.289e+00      -1.975e-01           0.101          -0.017          -0.995       5.772e-01         -0.0934
 382       4.816e+00      -4.289e+00      -2.590e-01           0.085          -0.017          -0.996       6.320e-01         -0.1621
 383       4.114e+00      -4.289e+00      -3.108e-01           0.062          -0.018          -0.998       6.499e-01         -0.2346
 384       3.411e+00      -4.289e+00      -3.437e-01           0.031          -0.021          -0.999       6.301e-01         -0.3110
 385       2.749e+00      -4.289e+00      -3.493e-01          -0.016          -0.027          -1.000       5.745e-01         -0.3868
 386       2.166e+00      -4.289e+00      -3.218e-01          -0.084          -0.039          -0.996       4.875e-01         -0.4515
 387       1.697e+00      -4.289e+00      -2.609e-01          -0.186          -0.061          -0.981       3.757e-01         -0.4926
 388       1.368e+00      -4.289e+00      -1.710e-01          -0.375          -0.106          -0.921       2.497e-01         -0.4547
 389       1.198e+00      -4.289e+00      -5.977e-02          -0.793          -0.214          -0.570       1.370e-01          0.3369
 390       1.198e+00      -4.289e+00       5.977e-02          -0.793          -0.214           0.570       1.370e-01          0.6656
 391       1.368e+00      -4.289e+00       1.710e-01          -0.375          -0.106           0.921       2.497e-01         -0.1205
 392       1.697e+00      -4.289e+00       2.609e-01          -0.186          -0.061           0.981       3.757e-01         -0.2919
 393       2.166e+00      -4.289e+00       3.218e-01          -0.084          -0.039           0.996       4.875e-01         -0.3195
 394       2.749e+00      -4.289e+00       3.493e-01          -0.016          -0.027           1.000       5.745e-01         -0.2958
 395       3.411e+00      -4.289e+00       3.437e-01           0.031          -0.021           0.999       6.301e-01         -0.2471
 396       4.114e+00      -4.289e+00       3.108e-01           0.062          -0.018           0.998       6.499e-01         -0.1896
 397       4.816e+00      -4.289e+00       2.590e-01           0.085          -0.017           0.996       6.320e-01         -0.1308
 398       5.478e+00      -4.289e+00       1.975e-01           0.101          -0.017           0.995       5.772e-01         -0.0723
 399       6.061e+00      -4.289e+00       1.349e-01           0.114          -0.018           0.993       4.887e-01         -0.0115
 400       6.531e+00      -4.289e+00       7.884e-02           0.125          -0.019           0.992       3.713e-01          0.0557
 401       6.860e+00      -4.289e+00       3.638e-02           0.133          -0.020           0.991       2.321e-01          0.1202
 402       7.029e+00      -4.289e+00       9.694e-03           0.220          -0.032           0.975       8.017e-02          0.1821
Strip 16
 403       7.159e+00      -3.367e+00      -1.032e-02           0.220          -0.032          -0.975       8.780e-02          0.1904
 404       6.979e+00      -3.367e+00      -3.872e-02           0.133          -0.020          -0.991       2.541e-01          0.1204
 405       6.629e+00      -3.367e+00      -8.392e-02           0.125          -0.019          -0.992       4.067e-01          0.0504
 406       6.129e+00      -3.367e+00      -1.436e-01           0.114          -0.018          -0.993       5.351e-01         -0.0230
 407       5.509e+00      -3.367e+00      -2.103e-01           0.101          -0.017          -0.995       6.321e-01         -0.0913
 408       4.804e+00      -3.367e+00      -2.757e-01           0.085          -0.017          -0.996       6.921e-01         -0.1594
 409       4.056e+00      -3.367e+00      -3.308e-01           0.062          -0.018          -0.998       7.117e-01         -0.2310
 410       3.308e+00      -3.367e+00      -3.658e-01           0.031          -0.021          -0.999       6.900e-01         -0.3064
 411       2.603e+00      -3.367e+00      -3.718e-01          -0.016          -0.027          -1.000       6.291e-01         -0.3811
 412       1.983e+00      -3.367e+00      -3.426e-01          -0.084          -0.039          -0.996       5.338e-01         -0.4445
 413       1.483e+00      -3.367e+00      -2.778e-01          -0.186          -0.061          -0.981       4.114e-01         -0.4841
 414       1.133e+00      -3.367e+00      -1.820e-01          -0.375          -0.106          -0.921       2.734e-01         -0.4440
 415       9.526e-01      -3.367e+00      -6.362e-02          -0.793          -0.214          -0.570       1.501e-01          0.3449
 416       9.526e-01      -3.367e+00       6.362e-02          -0.793          -0.214           0.570       1.501e-01          0.6632
 417       1.133e+00      -3.367e+00       1.820e-01          -0.375          -0.106           0.921       2.734e-01         -0.1208
 418       1.483e+00      -3.367e+00       2.778e-01          -0.186          -0.061           0.981       4.114e-01         -0.2899
 419       1.983e+00      -3.367e+00       3.426e-01          -0.084          -0.039           0.996       5.338e-01         -0.3168
 420       2.603e+00      -3.367e+00       3.718e-01          -0.016          -0.027           1.000       6.291e-01         -0.2928
 421       3.308e+00      -3.367e+00       3.658e-01           0.031          -0.021           0.999       6.900e-01         -0.2444
 422       4.056e+00      -3.367e+00       3.308e-01           0.062          -0.018           0.998       7.117e-01         -0.1873
 423       4.804e+00      -3.367e+00       2.757e-01           0.085          -0.017           0.996       6.921e-01         -0.1290
 424       5.509e+00      -3.367e+00       2.103e-01           0.101          -0.017           0.995       6.321e-01         -0.0708
 425       6.129e+00      -3.367e+00       1.436e-01           0.114          -0.018           0.993       5.351e-01         -0.0104
 426       6.629e+00      -3.367e+00       8.392e-02           0.125          -0.019           0.992       4.067e-01          0.0566
 427       6.979e+00      -3.367e+00       3.872e-02           0.133          -0.020           0.991       2.541e-01          0.1210
 428       7.159e+00      -3.367e+00       1.032e-02           0.220          -0.032           0.975       8.780e-02          0.1828
Strip 17
 429       7.293e+00      -2.421e+00      -1.096e-02           0.220          -0.032          -0.975       9.522e-02          0.1913
 430       7.101e+00      -2.421e+00      -4.112e-02           0.133          -0.020          -0.991       2.756e-01          0.1214
 431       6.729e+00      -2.421e+00      -8.913e-02           0.125          -0.019          -0.992       4.411e-01          0.0517
 432       6.198e+00      -2.421e+00      -1.525e-01           0.114          -0.018          -0.993       5.804e-01         -0.0212
 433       5.540e+00      -2.421e+00      -2.233e-01           0.101          -0.017          -0.995       6.856e-01         -0.0889
 434       4.791e+00      -2.421e+00      -2.928e-01           0.085          -0.017          -0.996       7.506e-01         -0.1563
 435       3.997e+00      -2.421e+00      -3.513e-01           0.062          -0.018          -0.998       7.718e-01         -0.2269
 436       3.202e+00      -2.421e+00      -3.885e-01           0.031          -0.021          -0.999       7.483e-01         -0.3008
 437       2.454e+00      -2.421e+00      -3.948e-01          -0.016          -0.027          -1.000       6.823e-01         -0.3735
 438       1.795e+00      -2.421e+00      -3.638e-01          -0.084          -0.039          -0.996       5.790e-01         -0.4350
 439       1.264e+00      -2.421e+00      -2.950e-01          -0.186          -0.061          -0.981       4.462e-01         -0.4723
 440       8.924e-01      -2.421e+00      -1.933e-01          -0.375          -0.106          -0.921       2.966e-01         -0.4293
 441       7.008e-01      -2.421e+00      -6.757e-02          -0.793          -0.214          -0.570       1.628e-01          0.3552
 442       7.008e-01      -2.421e+00       6.757e-02          -0.793          -0.214           0.570       1.628e-01          0.6610
 443       8.924e-01      -2.421e+00       1.933e-01          -0.375          -0.106           0.921       2.966e-01         -0.1195
 444       1.264e+00      -2.421e+00       2.950e-01          -0.186          -0.061           0.981       4.462e-01         -0.2859
 445       1.795e+00      -2.421e+00       3.638e-01          -0.084          -0.039           0.996       5.790e-01         -0.3120
 446       2.454e+00      -2.421e+00       3.948e-01          -0.016          -0.027           1.000       6.823e-01         -0.2883
 447       3.202e+00      -2.421e+00       3.885e-01           0.031          -0.021           0.999       7.483e-01         -0.2407
 448       3.997e+00      -2.421e+00       3.513e-01           0.062          -0.018           0.998       7.718e-01         -0.1844
 449       4.791e+00      -2.421e+00       2.928e-01           0.085          -0.017           0.996       7.506e-01         -0.1267
 450       5.540e+00      -2.421e+00       2.233e-01           0.101          -0.017           0.995       6.856e-01         -0.0691
 451       6.198e+00      -2.421e+00       1.525e-01           0.114          -0.018           0.993       5.804e-01         -0.0090
 452       6.729e+00      -2.421e+00       8.913e-02           0.125          -0.019           0.992       4.411e-01          0.0576
 453       7.101e+00      -2.421e+00       4.112e-02           0.133          -0.020           0.991       2.756e-01          0.1218
 454       7.293e+00      -2.421e+00       1.096e-02           0.220          -0.032           0.975       9.522e-02          0.1835
Strip 18
 455       7.428e+00      -1.460e+00      -1.161e-02           0.220          -0.032          -0.975       1.023e-01          0.1921
 456       7.225e+00      -1.460e+00      -4.357e-02           0.133          -0.020          -0.991       2.961e-01          0.1225
 457       6.831e+00      -1.460e+00      -9.443e-02           0.125          -0.019          -0.992       4.738e-01          0.0534
 458       6.269e+00      -1.460e+00      -1.616e-01           0.114          -0.018          -0.993       6.234e-01         -0.0191
 459       5.571e+00      -1.460e+00      -2.366e-01           0.101          -0.017          -0.995       7.364e-01         -0.0862
 460       4.778e+00      -1.460e+00      -3.102e-01           0.085          -0.017          -0.996       8.063e-01         -0.1530
 461       3.936e+00      -1.460e+00      -3.722e-01           0.062          -0.018          -0.998       8.291e-01         -0.2225
 462       3.095e+00      -1.460e+00      -4.116e-01           0.031          -0.021          -0.999       8.038e-01         -0.2943
 463       2.302e+00      -1.460e+00      -4.183e-01          -0.016          -0.027          -1.000       7.329e-01         -0.3635
 464       1.604e+00      -1.460e+00      -3.855e-01          -0.084          -0.039          -0.996       6.219e-01         -0.4205
 465       1.042e+00      -1.460e+00      -3.125e-01          -0.186          -0.061          -0.981       4.793e-01         -0.4534
 466       6.475e-01      -1.460e+00      -2.048e-01          -0.375          -0.106          -0.921       3.186e-01         -0.4061
 467       4.446e-01      -1.460e+00      -7.159e-02          -0.793          -0.214          -0.570       1.748e-01          0.3710
 468       4.446e-01      -1.460e+00       7.159e-02          -0.793          -0.214           0.570       1.748e-01          0.6606
 469       6.475e-01      -1.460e+00       2.048e-01          -0.375          -0.106           0.921       3.186e-01         -0.1134
 470       1.042e+00      -1.460e+00       3.125e-01          -0.186          -0.061           0.981       4.793e-01         -0.2765
 471       1.604e+00      -1.460e+00       3.855e-01          -0.084          -0.039           0.996       6.219e-01         -0.3028
 472       2.302e+00      -1.460e+00       4.183e-01          -0.016          -0.027           1.000       7.329e-01         -0.2812
 473       3.095e+00      -1.460e+00       4.116e-01           0.031          -0.021           0.999       8.038e-01         -0.2358
 474       3.936e+00      -1.460e+00       3.722e-01           0.062          -0.018           0.998       8.291e-01         -0.1811
 475       4.778e+00      -1.460e+00       3.102e-01           0.085          -0.017           0.996       8.063e-01         -0.1242
 476       5.571e+00      -1.460e+00       2.366e-01           0.101          -0.017           0.995       7.364e-01         -0.0670
 477       6.269e+00      -1.460e+00       1.616e-01           0.114          -0.018           0.993       6.234e-01         -0.0073
 478       6.831e+00      -1.460e+00       9.443e-02           0.125          -0.019           0.992       4.738e-01          0.0588
 479       7.225e+00      -1.460e+00       4.357e-02           0.133          -0.020           0.991       2.961e-01          0.1226
 480       7.428e+00      -1.460e+00       1.161e-02           0.220          -0.032           0.975       1.023e-01          0.1841
Strip 19
 481       7.565e+00      -4.876e-01      -1.227e-02           0.220          -0.032          -0.975       1.088e-01          0.1932
 482       7.351e+00      -4.876e-01      -4.604e-02           0.133          -0.020          -0.991       3.150e-01          0.1247
 483       6.934e+00      -4.876e-01      -9.979e-02           0.125          -0.019          -0.992       5.041e-01          0.0567
 484       6.340e+00      -4.876e-01      -1.707e-01           0.114          -0.018          -0.993       6.633e-01         -0.0154
 485       5.603e+00      -4.876e-01      -2.500e-01           0.101          -0.017          -0.995       7.836e-01         -0.0831
 486       4.765e+00      -4.876e-01      -3.278e-01           0.085          -0.017          -0.996       8.579e-01         -0.1505
 487       3.876e+00      -4.876e-01      -3.933e-01           0.062          -0.018          -0.998       8.821e-01         -0.2195
 488       2.986e+00      -4.876e-01      -4.350e-01           0.031          -0.021          -0.999       8.553e-01         -0.2889
 489       2.148e+00      -4.876e-01      -4.420e-01          -0.016          -0.027          -1.000       7.798e-01         -0.3517
 490       1.411e+00      -4.876e-01      -4.073e-01          -0.084          -0.039          -0.996       6.617e-01         -0.3962
 491       8.166e-01      -4.876e-01      -3.303e-01          -0.186          -0.061          -0.981       5.099e-01         -0.4104
 492       4.002e-01      -4.876e-01      -2.164e-01          -0.375          -0.106          -0.921       3.389e-01         -0.3494
 493       1.857e-01      -4.876e-01      -7.565e-02          -0.793          -0.214          -0.570       1.860e-01          0.4001
 494       1.857e-01      -4.876e-01       7.565e-02          -0.793          -0.214           0.570       1.860e-01          0.6618
 495       4.002e-01      -4.876e-01       2.164e-01          -0.375          -0.106           0.921       3.389e-01         -0.0844
 496       8.166e-01      -4.876e-01       3.303e-01          -0.186          -0.061           0.981       5.099e-01         -0.2458
 497       1.411e+00      -4.876e-01       4.073e-01          -0.084          -0.039           0.996       6.617e-01         -0.2828
 498       2.148e+00      -4.876e-01       4.420e-01          -0.016          -0.027           1.000       7.798e-01         -0.2709
 499       2.986e+00      -4.876e-01       4.350e-01           0.031          -0.021           0.999       8.553e-01         -0.2310
 500       3.876e+00      -4.876e-01       3.933e-01           0.062          -0.018           0.998       8.821e-01         -0.1785
 501       4.765e+00      -4.876e-01       3.278e-01           0.085          -0.017           0.996       8.579e-01         -0.1221
 502       5.603e+00      -4.876e-01       2.500e-01           0.101          -0.017           0.995       7.836e-01         -0.0644
 503       6.340e+00      -4.876e-01       1.707e-01           0.114          -0.018           0.993       6.633e-01         -0.0042
 504       6.934e+00      -4.876e-01       9.979e-02           0.125          -0.019           0.992       5.041e-01          0.0618
 505       7.351e+00      -4.876e-01       4.604e-02           0.133          -0.020           0.991       3.150e-01          0.1246
 506       7.565e+00      -4.876e-01       1.227e-02           0.220          -0.032           0.975       1.088e-01          0.1851
Strip 20
 507       7.565e+00       4.876e-01      -1.227e-02           0.220           0.032          -0.975       1.088e-01          0.1932
 508       7.351e+00       4.876e-01      -4.604e-02           0.133           0.020          -0.991       3.150e-01          0.1247
 509       6.934e+00       4.876e-01      -9.979e-02           0.125           0.019          -0.992       5.041e-01          0.0567
 510       6.340e+00       4.876e-01      -1.707e-01           0.114           0.018          -0.993       6.633e-01         -0.0154
 511       5.603e+00       4.876e-01      -2.500e-01           0.101           0.017          -0.995       7.836e-01         -0.0831
 512       4.765e+00       4.876e-01      -3.278e-01           0.085           0.017          -0.996       8.579e-01         -0.1505
 513       3.876e+00       4.876e-01      -3.933e-01           0.062           0.018          -0.998       8.821e-01         -0.2195
 514       2.986e+00       4.876e-01      -4.350e-01           0.031           0.021          -0.999       8.553e-01         -0.2889
 515       2.148e+00       4.876e-01      -4.420e-01          -0.016           0.027          -1.000       7.798e-01         -0.3517
 516       1.411e+00       4.876e-01      -4.073e-01          -0.084           0.039          -0.996       6.617e-01         -0.3962
 517       8.166e-01       4.876e-01      -3.303e-01          -0.186           0.061          -0.981       5.099e-01         -0.4104
 518       4.002e-01       4.876e-01      -2.164e-01          -0.375           0.106          -0.921       3.389e-01         -0.3494
 519       1.857e-01       4.876e-01      -7.565e-02          -0.793           0.214          -0.570       1.860e-01          0.4001
 520       1.857e-01       4.876e-01       7.565e-02          -0.793           0.214           0.570       1.860e-01          0.6618
 521       4.002e-01       4.876e-01       2.164e-01          -0.375           0.106           0.921       3.389e-01         -0.0844
 522       8.166e-01       4.876e-01       3.303e-01          -0.186           0.061           0.981       5.099e-01         -0.2458
 523       1.411e+00       4.876e-01       4.073e-01          -0.084           0.039           0.996       6.617e-01         -0.2828
 524       2.148e+00       4.876e-01       4.420e-01          -0.016           0.027           1.000       7.798e-01         -0.2709
 525       2.986e+00       4.876e-01       4.350e-01           0.031           0.021           0.999       8.553e-01         -0.2310
 526       3.876e+00       4.876e-01       3.933e-01           0.062           0.018           0.998       8.821e-01         -0.1785
 527       4.765e+00       4.876e-01       3.278e-01           0.085           0.017           0.996       8.579e-01         -0.1221
 528       5.603e+00       4.876e-01       2.500e-01           0.101           0.017           0.995       7.836e-01         -0.0644
 529       6.340e+00       4.876e-01       1.707e-01           0.114           0.018           0.993       6.633e-01         -0.0042
 530       6.934e+00       4.876e-01       9.979e-02           0.125           0.019           0.992       5.041e-01          0.0618
 531       7.351e+00       4.876e-01       4.604e-02           0.133           0.020           0.991       3.150e-01          0.1246
 532       7.565e+00       4.876e-01       1.227e-02           0.220           0.032           0.975       1.088e-01          0.1851
Strip 21
 533       7.428e+00       1.460e+00      -1.161e-02           0.220           0.032          -0.975       1.023e-01          0.1921
 534       7.225e+00       1.460e+00      -4.357e-02           0.133           0.020          -0.991       2.961e-01          0.1225
 535       6.831e+00       1.460e+00      -9.443e-02           0.125           0.019          -0.992       4.738e-01          0.0534
 536       6.269e+00       1.460e+00      -1.616e-01           0.114           0.018          -0.993       6.234e-01         -0.0191
 537       5.571e+00       1.460e+00      -2.366e-01           0.101           0.017          -0.995       7.364e-01         -0.0862
 538       4.778e+00       1.460e+00      -3.102e-01           0.085           0.017          -0.996       8.063e-01         -0.1530
 539       3.936e+00       1.460e+00      -3.722e-01           0.062           0.018          -0.998       8.291e-01         -0.2225
 540       3.095e+00       1.460e+00      -4.116e-01           0.031           0.021          -0.999       8.038e-01         -0.2943
 541       2.302e+00       1.460e+00      -4.183e-01          -0.016           0.027          -1.000       7.329e-01         -0.3635
 542       1.604e+00       1.460e+00      -3.855e-01          -0.084           0.039          -0.996       6.219e-01         -0.4205
 543       1.042e+00       1.460e+00      -3.125e-01          -0.186           0.061          -0.981       4.793e-01         -0.4534
 544       6.475e-01       1.460e+00      -2.048e-01          -0.375           0.106          -0.921       3.186e-01         -0.4061
 545       4.446e-01       1.460e+00      -7.159e-02          -0.793           0.214          -0.570       1.748e-01          0.3710
 546       4.446e-01       1.460e+00       7.159e-02          -0.793           0.214           0.570       1.748e-01          0.6606
 547       6.475e-01       1.460e+00       2.048e-01          -0.375           0.106           0.921       3.186e-01         -0.1134
 548       1.042e+00       1.460e+00       3.125e-01          -0.186           0.061           0.981       4.793e-01         -0.2765
 549       1.604e+00       1.460e+00       3.855e-01          -0.084           0.039           0.996       6.219e-01         -0.3028
 550       2.302e+00       1.460e+00       4.183e-01          -0.016           0.027           1.000       7.329e-01         -0.2812
 551       3.095e+00       1.460e+00       4.116e-01           0.031           0.021           0.999       8.038e-01         -0.2358
 552       3.936e+00       1.460e+00       3.722e-01           0.062           0.018           0.998       8.291e-01         -0.1811
 553       4.778e+00       1.460e+00       3.102e-01           0.085           0.017           0.996       8.063e-01         -0.1242
 554       5.571e+00       1.460e+00       2.366e-01           0.101           0.017           0.995       7.364e-01         -0.0670
 555       6.269e+00       1.460e+00       1.616e-01           0.114           0.018           0.993       6.234e-01         -0.0073
 556       6.831e+00       1.460e+00       9.443e-02           0.125           0.019           0.992       4.738e-01          0.0588
 557       7.225e+00       1.460e+00       4.357e-02           0.133           0.020           0.991       2.961e-01          0.1226
 558       7.428e+00       1.460e+00       1.161e-02           0.220           0.032           0.975       1.023e-01          0.1841
Strip 22
 559       7.293e+00       2.421e+00      -1.096e-02           0.220           0.032          -0.975       9.522e-02          0.1913
 560       7.101e+00       2.421e+00      -4.112e-02           0.133           0.020          -0.991       2.756e-01          0.1214
 561       6.729e+00       2.421e+00      -8.913e-02           0.125           0.019          -0.992       4.411e-01          0.0517
 562       6.198e+00       2.421e+00      -1.525e-01           0.114           0.018          -0.993       5.804e-01         -0.0212
 563       5.540e+00       2.421e+00      -2.233e-01           0.101           0.017          -0.995       6.856e-01         -0.0889
 564       4.791e+00       2.421e+00      -2.928e-01           0.085           0.017          -0.996       7.506e-01         -0.1563
 565       3.997e+00       2.421e+00      -3.513e-01           0.062           0.018          -0.998       7.718e-01         -0.2269
 566       3.202e+00       2.421e+00      -3.885e-01           0.031           0.021          -0.999       7.483e-01         -0.3008
 567       2.454e+00       2.421e+00      -3.948e-01          -0.016           0.027          -1.000       6.823e-01         -0.3735
 568       1.795e+00       2.421e+00      -3.638e-01          -0.084           0.039          -0.996       5.790e-01         -0.4350
[...]
 852       4.116e+00       1.060e+01      -1.921e-01           0.031           0.021          -0.999       1.660e-01         -0.2987
 853       3.746e+00       1.060e+01      -1.952e-01          -0.016           0.027          -1.000       1.514e-01         -0.3782
 854       3.420e+00       1.060e+01      -1.799e-01          -0.084           0.039          -0.996       1.285e-01         -0.4495
 855       3.158e+00       1.060e+01      -1.459e-01          -0.186           0.061          -0.981       9.900e-02         -0.4979
 856       2.974e+00       1.060e+01      -9.559e-02          -0.375           0.106          -0.921       6.580e-02         -0.4675
 857       2.879e+00       1.060e+01      -3.341e-02          -0.793           0.214          -0.570       3.612e-02          0.3258
 858       2.879e+00       1.060e+01       3.341e-02          -0.793           0.214           0.570       3.612e-02          0.6602
 859       2.974e+00       1.060e+01       9.559e-02          -0.375           0.106           0.921       6.580e-02         -0.1303
 860       3.158e+00       1.060e+01       1.459e-01          -0.186           0.061           0.981       9.900e-02         -0.3015
 861       3.420e+00       1.060e+01       1.799e-01          -0.084           0.039           0.996       1.285e-01         -0.3264
 862       3.746e+00       1.060e+01       1.952e-01          -0.016           0.027           1.000       1.514e-01         -0.2984
 863       4.116e+00       1.060e+01       1.921e-01           0.031           0.021           0.999       1.660e-01         -0.2465
 864       4.509e+00       1.060e+01       1.737e-01           0.062           0.018           0.998       1.713e-01         -0.1883
 865       4.902e+00       1.060e+01       1.448e-01           0.085           0.017           0.996       1.666e-01         -0.1313
 866       5.272e+00       1.060e+01       1.104e-01           0.101           0.017           0.995       1.521e-01         -0.0755
 867       5.598e+00       1.060e+01       7.541e-02           0.114           0.018           0.993       1.288e-01         -0.0171
 868       5.860e+00       1.060e+01       4.407e-02           0.125           0.019           0.992       9.786e-02          0.0489
 869       6.044e+00       1.060e+01       2.033e-02           0.133           0.020           0.991       6.116e-02          0.1132
 870       6.139e+00       1.060e+01       5.419e-03           0.220           0.032           0.975       2.113e-02          0.1753
Strip 34
 871       6.083e+00       1.099e+01      -5.154e-03           0.220           0.032          -0.975       1.663e-02          0.1757
 872       5.993e+00       1.099e+01      -1.934e-02           0.133           0.020          -0.991       4.814e-02          0.1073
 873       5.818e+00       1.099e+01      -4.191e-02           0.125           0.019          -0.992       7.703e-02          0.0407
 874       5.569e+00       1.099e+01      -7.172e-02           0.114           0.018          -0.993       1.014e-01         -0.0266
 875       5.259e+00       1.099e+01      -1.050e-01           0.101           0.017          -0.995       1.197e-01         -0.0861
 876       4.907e+00       1.099e+01      -1.377e-01           0.085           0.017          -0.996       1.311e-01         -0.1445
 877       4.534e+00       1.099e+01      -1.652e-01           0.062           0.018          -0.998       1.348e-01         -0.2085
 878       4.160e+00       1.099e+01      -1.827e-01           0.031           0.021          -0.999       1.307e-01         -0.2815
 879       3.808e+00       1.099e+01      -1.857e-01          -0.016           0.027          -1.000       1.192e-01         -0.3606
 880       3.498e+00       1.099e+01      -1.711e-01          -0.084           0.039          -0.996       1.011e-01         -0.4346
 881       3.249e+00       1.099e+01      -1.387e-01          -0.186           0.061          -0.981       7.793e-02         -0.4867
 882       3.074e+00       1.099e+01      -9.091e-02          -0.375           0.106          -0.921       5.180e-02         -0.4579
 883       2.984e+00       1.099e+01      -3.177e-02          -0.793           0.214          -0.570       2.843e-02          0.3317
 884       2.984e+00       1.099e+01       3.177e-02          -0.793           0.214           0.570       2.843e-02          0.6501
 885       3.074e+00       1.099e+01       9.091e-02          -0.375           0.106           0.921       5.180e-02         -0.1395
 886       3.249e+00       1.099e+01       1.387e-01          -0.186           0.061           0.981       7.793e-02         -0.3047
 887       3.498e+00       1.099e+01       1.711e-01          -0.084           0.039           0.996       1.011e-01         -0.3235
 888       3.808e+00       1.099e+01       1.857e-01          -0.016           0.027           1.000       1.192e-01         -0.2907
 889       4.160e+00       1.099e+01       1.827e-01           0.031           0.021           0.999       1.307e-01         -0.2370
 890       4.534e+00       1.099e+01       1.652e-01           0.062           0.018           0.998       1.348e-01         -0.1801
 891       4.907e+00       1.099e+01       1.377e-01           0.085           0.017           0.996       1.311e-01         -0.1262
 892       5.259e+00       1.099e+01       1.050e-01           0.101           0.017           0.995       1.197e-01         -0.0742
 893       5.569e+00       1.099e+01       7.172e-02           0.114           0.018           0.993       1.014e-01         -0.0188
 894       5.818e+00       1.099e+01       4.191e-02           0.125           0.019           0.992       7.703e-02          0.0454
 895       5.993e+00       1.099e+01       1.934e-02           0.133           0.020           0.991       4.814e-02          0.1092
 896       6.083e+00       1.099e+01       5.154e-03           0.220           0.032           0.975       1.663e-02          0.1711
Strip 35
 897       6.039e+00       1.131e+01      -4.939e-03           0.220           0.032          -0.975       1.251e-02          0.1651
 898       5.952e+00       1.131e+01      -1.853e-02           0.133           0.020          -0.991       3.621e-02          0.0976
 899       5.785e+00       1.131e+01      -4.017e-02           0.125           0.019          -0.992       5.795e-02          0.0335
 900       5.546e+00       1.131e+01      -6.873e-02           0.114           0.018          -0.993       7.625e-02         -0.0289
 901       5.249e+00       1.131e+01      -1.006e-01           0.101           0.017          -0.995       9.008e-02         -0.0816
 902       4.911e+00       1.131e+01      -1.320e-01           0.085           0.017          -0.996       9.862e-02         -0.1326
 903       4.553e+00       1.131e+01      -1.583e-01           0.062           0.018          -0.998       1.014e-01         -0.1892
 904       4.195e+00       1.131e+01      -1.751e-01           0.031           0.021          -0.999       9.832e-02         -0.2563
 905       3.858e+00       1.131e+01      -1.779e-01          -0.016           0.027          -1.000       8.965e-02         -0.3327
 906       3.561e+00       1.131e+01      -1.640e-01          -0.084           0.039          -0.996       7.607e-02         -0.4095
 907       3.322e+00       1.131e+01      -1.330e-01          -0.186           0.061          -0.981       5.862e-02         -0.4692
 908       3.154e+00       1.131e+01      -8.713e-02          -0.375           0.106          -0.921       3.897e-02         -0.4467
 909       3.068e+00       1.131e+01      -3.045e-02          -0.793           0.214          -0.570       2.139e-02          0.3361
 910       3.068e+00       1.131e+01       3.045e-02          -0.793           0.214           0.570       2.139e-02          0.6322
 911       3.154e+00       1.131e+01       8.713e-02          -0.375           0.106           0.921       3.897e-02         -0.1546
 912       3.322e+00       1.131e+01       1.330e-01          -0.186           0.061           0.981       5.862e-02         -0.3075
 913       3.561e+00       1.131e+01       1.640e-01          -0.084           0.039           0.996       7.607e-02         -0.3144
 914       3.858e+00       1.131e+01       1.779e-01          -0.016           0.027           1.000       8.965e-02         -0.2749
 915       4.195e+00       1.131e+01       1.751e-01           0.031           0.021           0.999       9.832e-02         -0.2206
 916       4.553e+00       1.131e+01       1.583e-01           0.062           0.018           0.998       1.014e-01         -0.1669
 917       4.911e+00       1.131e+01       1.320e-01           0.085           0.017           0.996       9.862e-02         -0.1185
 918       5.249e+00       1.131e+01       1.006e-01           0.101           0.017           0.995       9.008e-02         -0.0725
 919       5.546e+00       1.131e+01       6.873e-02           0.114           0.018           0.993       7.625e-02         -0.0225
 920       5.785e+00       1.131e+01       4.017e-02           0.125           0.019           0.992       5.795e-02          0.0383
 921       5.952e+00       1.131e+01       1.853e-02           0.133           0.020           0.991       3.621e-02          0.1009
 922       6.039e+00       1.131e+01       4.939e-03           0.220           0.032           0.975       1.251e-02          0.1627
Strip 36
 923       6.005e+00       1.155e+01      -4.777e-03           0.220           0.032          -0.975       8.702e-03          0.1425
 924       5.921e+00       1.155e+01      -1.792e-02           0.133           0.020          -0.991       2.519e-02          0.0767
 925       5.759e+00       1.155e+01      -3.885e-02           0.125           0.019          -0.992       4.031e-02          0.0180
 926       5.528e+00       1.155e+01      -6.648e-02           0.114           0.018          -0.993       5.304e-02         -0.0357
 927       5.241e+00       1.155e+01      -9.734e-02           0.101           0.017          -0.995       6.266e-02         -0.0784
 928       4.915e+00       1.155e+01      -1.276e-01           0.085           0.017          -0.996       6.860e-02         -0.1205
 929       4.568e+00       1.155e+01      -1.531e-01           0.062           0.018          -0.998       7.054e-02         -0.1657
 930       4.222e+00       1.155e+01      -1.693e-01           0.031           0.021          -0.999       6.839e-02         -0.2246
 931       3.896e+00       1.155e+01      -1.721e-01          -0.016           0.027          -1.000       6.236e-02         -0.2939
 932       3.609e+00       1.155e+01      -1.586e-01          -0.084           0.039          -0.996       5.291e-02         -0.3674
 933       3.377e+00       1.155e+01      -1.286e-01          -0.186           0.061          -0.981       4.078e-02         -0.4382
 934       3.215e+00       1.155e+01      -8.427e-02          -0.375           0.106          -0.921       2.710e-02         -0.4355
 935       3.132e+00       1.155e+01      -2.945e-02          -0.793           0.214          -0.570       1.488e-02          0.3301
 936       3.132e+00       1.155e+01       2.945e-02          -0.793           0.214           0.570       1.488e-02          0.5953
 937       3.215e+00       1.155e+01       8.427e-02          -0.375           0.106           0.921       2.710e-02         -0.1809
 938       3.377e+00       1.155e+01       1.286e-01          -0.186           0.061           0.981       4.078e-02         -0.3044
 939       3.609e+00       1.155e+01       1.586e-01          -0.084           0.039           0.996       5.291e-02         -0.2915
 940       3.896e+00       1.155e+01       1.721e-01          -0.016           0.027           1.000       6.236e-02         -0.2489
 941       4.222e+00       1.155e+01       1.693e-01           0.031           0.021           0.999       6.839e-02         -0.1972
 942       4.568e+00       1.155e+01       1.531e-01           0.062           0.018           0.998       7.054e-02         -0.1488
 943       4.915e+00       1.155e+01       1.276e-01           0.085           0.017           0.996       6.860e-02         -0.1090
 944       5.241e+00       1.155e+01       9.734e-02           0.101           0.017           0.995       6.266e-02         -0.0710
 945       5.528e+00       1.155e+01       6.648e-02           0.114           0.018           0.993       5.304e-02         -0.0286
 946       5.759e+00       1.155e+01       3.885e-02           0.125           0.019           0.992       4.031e-02          0.0252
 947       5.921e+00       1.155e+01       1.792e-02           0.133           0.020           0.991       2.519e-02          0.0846
 948       6.005e+00       1.155e+01       4.777e-03           0.220           0.032           0.975       8.702e-03          0.1456
Strip 37
 949       5.982e+00       1.171e+01      -4.668e-03           0.220           0.032          -0.975       5.126e-03          0.0830
 950       5.901e+00       1.171e+01      -1.752e-02           0.133           0.020          -0.991       1.484e-02          0.0243
 951       5.742e+00       1.171e+01      -3.797e-02           0.125           0.019          -0.992       2.374e-02         -0.0116
 952       5.516e+00       1.171e+01      -6.496e-02           0.114           0.018          -0.993       3.124e-02         -0.0531
 953       5.236e+00       1.171e+01      -9.512e-02           0.101           0.017          -0.995       3.691e-02         -0.0785
 954       4.917e+00       1.171e+01      -1.247e-01           0.085           0.017          -0.996       4.041e-02         -0.1140
 955       4.578e+00       1.171e+01      -1.496e-01           0.062           0.018          -0.998       4.155e-02         -0.1415
 956       4.240e+00       1.171e+01      -1.655e-01           0.031           0.021          -0.999       4.029e-02         -0.1915
 957       3.921e+00       1.171e+01      -1.682e-01          -0.016           0.027          -1.000       3.673e-02         -0.2514
 958       3.641e+00       1.171e+01      -1.550e-01          -0.084           0.039          -0.996       3.117e-02         -0.3080
 959       3.415e+00       1.171e+01      -1.257e-01          -0.186           0.061          -0.981       2.402e-02         -0.3844
 960       3.256e+00       1.171e+01      -8.235e-02          -0.375           0.106          -0.921       1.596e-02         -0.4302
 961       3.175e+00       1.171e+01      -2.878e-02          -0.793           0.214          -0.570       8.762e-03          0.2711
 962       3.175e+00       1.171e+01       2.878e-02          -0.793           0.214           0.570       8.762e-03          0.4877
 963       3.256e+00       1.171e+01       8.235e-02          -0.375           0.106           0.921       1.596e-02         -0.2296
 964       3.415e+00       1.171e+01       1.257e-01          -0.186           0.061           0.981       2.402e-02         -0.2846
 965       3.641e+00       1.171e+01       1.550e-01          -0.084           0.039           0.996       3.117e-02         -0.2505
 966       3.921e+00       1.171e+01       1.682e-01          -0.016           0.027           1.000       3.673e-02         -0.2176
 967       4.240e+00       1.171e+01       1.655e-01           0.031           0.021           0.999       4.029e-02         -0.1702
 968       4.578e+00       1.171e+01       1.496e-01           0.062           0.018           0.998       4.155e-02         -0.1277
 969       4.917e+00       1.171e+01       1.247e-01           0.085           0.017           0.996       4.041e-02         -0.1019
 970       5.236e+00       1.171e+01       9.512e-02           0.101           0.017           0.995       3.691e-02         -0.0705
 971       5.516e+00       1.171e+01       6.496e-02           0.114           0.018           0.993       3.124e-02         -0.0389
 972       5.742e+00       1.171e+01       3.797e-02           0.125           0.019           0.992       2.374e-02          0.0051
 973       5.901e+00       1.171e+01       1.752e-02           0.133           0.020           0.991       1.484e-02          0.0537
 974       5.982e+00       1.171e+01       4.668e-03           0.220           0.032           0.975       5.126e-03          0.1072
Strip 38
 975       5.971e+00       1.179e+01      -4.614e-03           0.220           0.032          -0.975       1.693e-03         -0.0103
 976       5.890e+00       1.179e+01      -1.731e-02           0.133           0.020          -0.991       4.899e-03         -0.0301
 977       5.734e+00       1.179e+01      -3.752e-02           0.125           0.019          -0.992       7.840e-03         -0.0193
 978       5.510e+00       1.179e+01      -6.420e-02           0.114           0.018          -0.993       1.032e-02         -0.0673
 979       5.233e+00       1.179e+01      -9.401e-02           0.101           0.017          -0.995       1.219e-02         -0.0751
 980       4.918e+00       1.179e+01      -1.233e-01           0.085           0.017          -0.996       1.334e-02         -0.1112
 981       4.583e+00       1.179e+01      -1.479e-01           0.062           0.018          -0.998       1.372e-02         -0.1227
 982       4.249e+00       1.179e+01      -1.636e-01           0.031           0.021          -0.999       1.330e-02         -0.1659
 983       3.934e+00       1.179e+01      -1.662e-01          -0.016           0.027          -1.000       1.213e-02         -0.2182
 984       3.657e+00       1.179e+01      -1.532e-01          -0.084           0.039          -0.996       1.029e-02         -0.2505
 985       3.433e+00       1.179e+01      -1.242e-01          -0.186           0.061          -0.981       7.931e-03         -0.3130
 986       3.277e+00       1.179e+01      -8.139e-02          -0.375           0.106          -0.921       5.271e-03         -0.3942
 987       3.196e+00       1.179e+01      -2.845e-02          -0.793           0.214          -0.570       2.893e-03          0.2151
 988       3.196e+00       1.179e+01       2.845e-02          -0.793           0.214           0.570       2.893e-03          0.3813
 989       3.277e+00       1.179e+01       8.139e-02          -0.375           0.106           0.921       5.271e-03         -0.2392
 990       3.433e+00       1.179e+01       1.242e-01          -0.186           0.061           0.981       7.931e-03         -0.2382
 991       3.657e+00       1.179e+01       1.532e-01          -0.084           0.039           0.996       1.029e-02         -0.2050
 992       3.934e+00       1.179e+01       1.662e-01          -0.016           0.027           1.000       1.213e-02         -0.1911
 993       4.249e+00       1.179e+01       1.636e-01           0.031           0.021           0.999       1.330e-02         -0.1474
 994       4.583e+00       1.179e+01       1.479e-01           0.062           0.018           0.998       1.372e-02         -0.1099
 995       4.918e+00       1.179e+01       1.233e-01           0.085           0.017           0.996       1.334e-02         -0.0976
 996       5.233e+00       1.179e+01       9.401e-02           0.101           0.017           0.995       1.219e-02         -0.0683
 997       5.510e+00       1.179e+01       6.420e-02           0.114           0.018           0.993       1.032e-02         -0.0530
 998       5.734e+00       1.179e+01       3.752e-02           0.125           0.019           0.992       7.840e-03         -0.0100
 999       5.890e+00       1.179e+01       1.731e-02           0.133           0.020           0.991       4.899e-03         -0.0000
1000       5.971e+00       1.179e+01       4.614e-03           0.220           0.032           0.975       1.693e-03          0.0067










