xflr5 v6.57

vertical tail 2
T1-10.0 m/s-VLM1-Inviscid
QInf  =   10.000000 m/s
Alpha =    5.000000
Beta  =    0.000°
Phi   =    0.000°
Ctrl  =    0.000
CL    =    0.284433
Cy    =    0.000000
Cd    =    0.008325     ICd   =    0.008325     PCd   =    0.000000
Cl   = -3.92461e-17
Cm   =   -0.152027
ICn   =   -0.000000     PCn   =   -0.000000 
XCP   =    4.847797     YCP   =    0.000000     ZCP   =    0.000000  
XNP   =    0.000000
Bending = 8930.950100

Main Wing
  y-span        Chord      Ai         Cl        PCd          ICd        CmGeom    CmAirf@chord/4    XTrtop    XTrBot      XCP       BM
  -12.5555     4.3377    -1.936    0.069624    0.000000    0.002354   -0.111447    0.006843     0.0000    0.0000    0.1517    0.0000
  -12.4698     4.3930    -1.913    0.118447    0.000000    0.003957   -0.186767    0.011152     0.0000    0.0000    0.1558    0.0682
  -12.2988     4.5033    -1.879    0.166698    0.000000    0.005469   -0.255314    0.014263     0.0000    0.0000    0.1644    0.9045
  -12.0438     4.6678    -1.838    0.209370    0.000000    0.006719   -0.307088    0.015684     0.0000    0.0000    0.1751    4.6527
  -11.7066     4.8854    -1.793    0.244940    0.000000    0.007668   -0.339398    0.015657     0.0000    0.0000    0.1861   15.5977
  -11.2894     5.1545    -1.748    0.272945    0.000000    0.008329   -0.352847    0.014647     0.0000    0.0000    0.1963   40.6924
  -10.7951     5.4734    -1.706    0.293627    0.000000    0.008743   -0.350179    0.013130     0.0000    0.0000    0.2053   89.8730
  -10.2270     5.8399    -1.670    0.307678    0.000000    0.008968   -0.335181    0.011468     0.0000    0.0000    0.2127   176.1443
   -9.5891     6.2514    -1.642    0.316018    0.000000    0.009059   -0.311779    0.009885     0.0000    0.0000    0.2187   315.4314
   -8.8857     6.7052    -1.624    0.319623    0.000000    0.009063   -0.283453    0.008485     0.0000    0.0000    0.2235   526.2043
   -8.1216     7.1982    -1.616    0.319402    0.000000    0.009010   -0.252966    0.007286     0.0000    0.0000    0.2272   828.8917
   -7.3020     7.7270    -1.616    0.316148    0.000000    0.008921   -0.222334    0.006260     0.0000    0.0000    0.2302   1245.1066
   -6.4325     8.2879    -1.624    0.310512    0.000000    0.008804   -0.192918    0.005353     0.0000    0.0000    0.2328   1796.7117
   -5.5191     8.8772    -1.638    0.303019    0.000000    0.008663   -0.165567    0.004495     0.0000    0.0000    0.2352   2504.7631
   -4.5679     9.4908    -1.655    0.294078    0.000000    0.008499   -0.140767    0.003607     0.0000    0.0000    0.2377   3388.3820
   -3.5856    10.1245    -1.676    0.284009    0.000000    0.008312   -0.118761    0.002593     0.0000    0.0000    0.2409   4463.6091
   -2.5788    10.7741    -1.700    0.273055    0.000000    0.008104   -0.099649    0.001332     0.0000    0.0000    0.2451   5742.3079
   -1.5544    11.4350    -1.727    0.261396    0.000000    0.007880   -0.083471   -0.000335     0.0000    0.0000    0.2513   7231.1799
   -0.5193    12.1027    -1.761    0.249131    0.000000    0.007660   -0.070240   -0.002606     0.0000    0.0000    0.2605   8930.9501
    0.5193    12.1027    -1.761    0.249131    0.000000    0.007660   -0.070240   -0.002606     0.0000    0.0000    0.2605   8930.9501
    1.5544    11.4350    -1.727    0.261396    0.000000    0.007880   -0.083471   -0.000335     0.0000    0.0000    0.2513   7231.1799
    2.5788    10.7741    -1.700    0.273055    0.000000    0.008104   -0.099649    0.001332     0.0000    0.0000    0.2451   5742.3079
    3.5856    10.1245    -1.676    0.284009    0.000000    0.008312   -0.118761    0.002593     0.0000    0.0000    0.2409   4463.6091
    4.5679     9.4908    -1.655    0.294078    0.000000    0.008499   -0.140767    0.003607     0.0000    0.0000    0.2377   3388.3820
    5.5191     8.8772    -1.638    0.303019    0.000000    0.008663   -0.165567    0.004495     0.0000    0.0000    0.2352   2504.7631
    6.4325     8.2879    -1.624    0.310512    0.000000    0.008804   -0.192918    0.005353     0.0000    0.0000    0.2328   1796.7117
    7.3020     7.7270    -1.616    0.316148    0.000000    0.008921   -0.222334    0.006260     0.0000    0.0000    0.2302   1245.1066
    8.1216     7.1982    -1.616    0.319402    0.000000    0.009010   -0.252966    0.007286     0.0000    0.0000    0.2272   828.8917
    8.8857     6.7052    -1.624    0.319623    0.000000    0.009063   -0.283453    0.008485     0.0000    0.0000    0.2235   526.2043
    9.5891     6.2514    -1.642    0.316018    0.000000    0.009059   -0.311779    0.009885     0.0000    0.0000    0.2187   315.4314
   10.2270     5.8399    -1.670    0.307678    0.000000    0.008968   -0.335181    0.011468     0.0000    0.0000    0.2127   176.1443
   10.7951     5.4734    -1.706    0.293627    0.000000    0.008743   -0.350179    0.013130     0.0000    0.0000    0.2053   89.8730
   11.2894     5.1545    -1.748    0.272945    0.000000    0.008329   -0.352847    0.014647     0.0000    0.0000    0.1963   40.6924
   11.7066     4.8854    -1.793    0.244940    0.000000    0.007668   -0.339398    0.015657     0.0000    0.0000    0.1861   15.5977
   12.0438     4.6678    -1.838    0.209370    0.000000    0.006719   -0.307088    0.015684     0.0000    0.0000    0.1751    4.6527
   12.2988     4.5033    -1.879    0.166698    0.000000    0.005469   -0.255314    0.014263     0.0000    0.0000    0.1644    0.9045
   12.4698     4.3930    -1.913    0.118447    0.000000    0.003957   -0.186767    0.011152     0.0000    0.0000    0.1558    0.0682
   12.5555     4.3377    -1.936    0.069624    0.000000    0.002354   -0.111447    0.006843     0.0000    0.0000    0.1517    0.0000


Main Wing Cp Coefficients
 Panel     CtrlPt.x        CtrlPt.y        CtrlPt.z       Nx      Ny       Nz        Area       Cp
Main WingCp Coefficients
Strip 1
   0       1.061e+01      -1.256e+01       0.000e+00           0.000           0.000           1.000       2.707e-03          0.0044
   1       1.051e+01      -1.256e+01       0.000e+00           0.000           0.000           1.000       7.964e-03          0.0066
   2       1.030e+01      -1.256e+01       0.000e+00           0.000           0.000           1.000       1.276e-02          0.0091
   3       9.980e+00      -1.256e+01       0.000e+00           0.000           0.000           1.000       1.681e-02          0.0118
   4       9.570e+00      -1.256e+01       0.000e+00           0.000           0.000           1.000       1.989e-02          0.0152
   5       9.096e+00      -1.256e+01       0.000e+00           0.000           0.000           1.000       2.181e-02          0.0195
   6       8.585e+00      -1.256e+01       0.000e+00           0.000           0.000           1.000       2.246e-02          0.0256
   7       8.066e+00      -1.256e+01       0.000e+00           0.000           0.000           1.000       2.181e-02          0.0346
   8       7.569e+00      -1.256e+01       0.000e+00           0.000           0.000           1.000       1.989e-02          0.0495
   9       7.124e+00      -1.256e+01       0.000e+00           0.000           0.000           1.000       1.681e-02          0.0769
  10       6.756e+00      -1.256e+01       0.000e+00           0.000           0.000           1.000       1.276e-02          0.1385
  11       6.487e+00      -1.256e+01       0.000e+00           0.000           0.000           1.000       7.964e-03          0.3307
  12       6.333e+00      -1.256e+01       0.000e+00           0.000           0.000           1.000       2.707e-03          1.4250
Strip 2
  13       1.062e+01      -1.247e+01       0.000e+00           0.000           0.000           1.000       8.207e-03          0.0068
  14       1.052e+01      -1.247e+01       0.000e+00           0.000           0.000           1.000       2.414e-02          0.0111
  15       1.031e+01      -1.247e+01       0.000e+00           0.000           0.000           1.000       3.868e-02          0.0155
  16       9.984e+00      -1.247e+01       0.000e+00           0.000           0.000           1.000       5.096e-02          0.0203
  17       9.569e+00      -1.247e+01       0.000e+00           0.000           0.000           1.000       6.029e-02          0.0262
  18       9.089e+00      -1.247e+01       0.000e+00           0.000           0.000           1.000       6.611e-02          0.0337
  19       8.571e+00      -1.247e+01       0.000e+00           0.000           0.000           1.000       6.808e-02          0.0443
  20       8.046e+00      -1.247e+01       0.000e+00           0.000           0.000           1.000       6.611e-02          0.0603
  21       7.543e+00      -1.247e+01       0.000e+00           0.000           0.000           1.000       6.029e-02          0.0868
  22       7.092e+00      -1.247e+01       0.000e+00           0.000           0.000           1.000       5.096e-02          0.1371
  23       6.720e+00      -1.247e+01       0.000e+00           0.000           0.000           1.000       3.868e-02          0.2563
  24       6.447e+00      -1.247e+01       0.000e+00           0.000           0.000           1.000       2.414e-02          0.6470
  25       6.290e+00      -1.247e+01       0.000e+00           0.000           0.000           1.000       8.207e-03          1.9956
Strip 3
  26       1.064e+01      -1.230e+01       0.000e+00           0.000           0.000           1.000       1.396e-02          0.0090
  27       1.055e+01      -1.230e+01       0.000e+00           0.000           0.000           1.000       4.106e-02          0.0154
  28       1.033e+01      -1.230e+01       0.000e+00           0.000           0.000           1.000       6.578e-02          0.0221
  29       9.992e+00      -1.230e+01       0.000e+00           0.000           0.000           1.000       8.667e-02          0.0294
  30       9.567e+00      -1.230e+01       0.000e+00           0.000           0.000           1.000       1.025e-01          0.0381
  31       9.075e+00      -1.230e+01       0.000e+00           0.000           0.000           1.000       1.124e-01          0.0494
  32       8.544e+00      -1.230e+01       0.000e+00           0.000           0.000           1.000       1.158e-01          0.0655
  33       8.005e+00      -1.230e+01       0.000e+00           0.000           0.000           1.000       1.124e-01          0.0902
  34       7.490e+00      -1.230e+01       0.000e+00           0.000           0.000           1.000       1.025e-01          0.1323
  35       7.028e+00      -1.230e+01       0.000e+00           0.000           0.000           1.000       8.667e-02          0.2155
  36       6.646e+00      -1.230e+01       0.000e+00           0.000           0.000           1.000       6.578e-02          0.4089
  37       6.367e+00      -1.230e+01       0.000e+00           0.000           0.000           1.000       4.106e-02          0.8844
  38       6.206e+00      -1.230e+01       0.000e+00           0.000           0.000           1.000       1.396e-02          2.3457
Strip 4
  39       1.068e+01      -1.204e+01       0.000e+00           0.000           0.000           1.000       2.012e-02          0.0111
  40       1.058e+01      -1.204e+01       0.000e+00           0.000           0.000           1.000       5.918e-02          0.0194
  41       1.035e+01      -1.204e+01       0.000e+00           0.000           0.000           1.000       9.480e-02          0.0285
  42       1.000e+01      -1.204e+01       0.000e+00           0.000           0.000           1.000       1.249e-01          0.0385
  43       9.564e+00      -1.204e+01       0.000e+00           0.000           0.000           1.000       1.478e-01          0.0504
  44       9.054e+00      -1.204e+01       0.000e+00           0.000           0.000           1.000       1.620e-01          0.0660
  45       8.504e+00      -1.204e+01       0.000e+00           0.000           0.000           1.000       1.669e-01          0.0884
  46       7.945e+00      -1.204e+01       0.000e+00           0.000           0.000           1.000       1.620e-01          0.1234
  47       7.411e+00      -1.204e+01       0.000e+00           0.000           0.000           1.000       1.478e-01          0.1841
  48       6.932e+00      -1.204e+01       0.000e+00           0.000           0.000           1.000       1.249e-01          0.3005
  49       6.536e+00      -1.204e+01       0.000e+00           0.000           0.000           1.000       9.480e-02          0.5331
  50       6.247e+00      -1.204e+01       0.000e+00           0.000           0.000           1.000       5.918e-02          1.0251
  51       6.080e+00      -1.204e+01       0.000e+00           0.000           0.000           1.000       2.012e-02          2.5936
Strip 5
  52       1.073e+01      -1.171e+01       0.000e+00           0.000           0.000           1.000       2.682e-02          0.0132
  53       1.062e+01      -1.171e+01       0.000e+00           0.000           0.000           1.000       7.890e-02          0.0232
  54       1.038e+01      -1.171e+01       0.000e+00           0.000           0.000           1.000       1.264e-01          0.0347
  55       1.002e+01      -1.171e+01       0.000e+00           0.000           0.000           1.000       1.666e-01          0.0474
  56       9.560e+00      -1.171e+01       0.000e+00           0.000           0.000           1.000       1.970e-01          0.0627
  57       9.026e+00      -1.171e+01       0.000e+00           0.000           0.000           1.000       2.160e-01          0.0830
  58       8.450e+00      -1.171e+01       0.000e+00           0.000           0.000           1.000       2.225e-01          0.1123
  59       7.866e+00      -1.171e+01       0.000e+00           0.000           0.000           1.000       2.160e-01          0.1582
  60       7.306e+00      -1.171e+01       0.000e+00           0.000           0.000           1.000       1.970e-01          0.2358
  61       6.805e+00      -1.171e+01       0.000e+00           0.000           0.000           1.000       1.666e-01          0.3721
  62       6.391e+00      -1.171e+01       0.000e+00           0.000           0.000           1.000       1.264e-01          0.6144
  63       6.088e+00      -1.171e+01       0.000e+00           0.000           0.000           1.000       7.890e-02          1.1148
  64       5.914e+00      -1.171e+01       0.000e+00           0.000           0.000           1.000       2.682e-02          2.7665
Strip 6
  65       1.079e+01      -1.129e+01       0.000e+00           0.000           0.000           1.000       3.419e-02          0.0153
  66       1.068e+01      -1.129e+01       0.000e+00           0.000           0.000           1.000       1.006e-01          0.0270
  67       1.042e+01      -1.129e+01       0.000e+00           0.000           0.000           1.000       1.611e-01          0.0406
  68       1.004e+01      -1.129e+01       0.000e+00           0.000           0.000           1.000       2.123e-01          0.0560
  69       9.555e+00      -1.129e+01       0.000e+00           0.000           0.000           1.000       2.512e-01          0.0748
  70       8.992e+00      -1.129e+01       0.000e+00           0.000           0.000           1.000       2.754e-01          0.0997
  71       8.384e+00      -1.129e+01       0.000e+00           0.000           0.000           1.000       2.837e-01          0.1355
  72       7.767e+00      -1.129e+01       0.000e+00           0.000           0.000           1.000       2.754e-01          0.1907
  73       7.177e+00      -1.129e+01       0.000e+00           0.000           0.000           1.000       2.512e-01          0.2791
  74       6.648e+00      -1.129e+01       0.000e+00           0.000           0.000           1.000       2.123e-01          0.4225
  75       6.211e+00      -1.129e+01       0.000e+00           0.000           0.000           1.000       1.611e-01          0.6655
  76       5.892e+00      -1.129e+01       0.000e+00           0.000           0.000           1.000       1.006e-01          1.1722
  77       5.708e+00      -1.129e+01       0.000e+00           0.000           0.000           1.000       3.419e-02          2.8806
Strip 7
  78       1.086e+01      -1.080e+01       0.000e+00           0.000           0.000           1.000       4.231e-02          0.0172
  79       1.074e+01      -1.080e+01       0.000e+00           0.000           0.000           1.000       1.245e-01          0.0304
  80       1.047e+01      -1.080e+01       0.000e+00           0.000           0.000           1.000       1.994e-01          0.0461
  81       1.007e+01      -1.080e+01       0.000e+00           0.000           0.000           1.000       2.628e-01          0.0640
  82       9.549e+00      -1.080e+01       0.000e+00           0.000           0.000           1.000       3.108e-01          0.0859
  83       8.951e+00      -1.080e+01       0.000e+00           0.000           0.000           1.000       3.409e-01          0.1150
  84       8.306e+00      -1.080e+01       0.000e+00           0.000           0.000           1.000       3.511e-01          0.1561
  85       7.651e+00      -1.080e+01       0.000e+00           0.000           0.000           1.000       3.409e-01          0.2175
  86       7.024e+00      -1.080e+01       0.000e+00           0.000           0.000           1.000       3.108e-01          0.3107
  87       6.463e+00      -1.080e+01       0.000e+00           0.000           0.000           1.000       2.628e-01          0.4549
  88       5.999e+00      -1.080e+01       0.000e+00           0.000           0.000           1.000       1.994e-01          0.6962
  89       5.659e+00      -1.080e+01       0.000e+00           0.000           0.000           1.000       1.245e-01          1.2062
  90       5.464e+00      -1.080e+01       0.000e+00           0.000           0.000           1.000       4.231e-02          2.9478
Strip 8
  91       1.094e+01      -1.023e+01       0.000e+00           0.000           0.000           1.000       5.125e-02          0.0188
  92       1.081e+01      -1.023e+01       0.000e+00           0.000           0.000           1.000       1.508e-01          0.0335
  93       1.053e+01      -1.023e+01       0.000e+00           0.000           0.000           1.000       2.415e-01          0.0508
  94       1.009e+01      -1.023e+01       0.000e+00           0.000           0.000           1.000       3.183e-01          0.0709
  95       9.542e+00      -1.023e+01       0.000e+00           0.000           0.000           1.000       3.765e-01          0.0955
  96       8.904e+00      -1.023e+01       0.000e+00           0.000           0.000           1.000       4.128e-01          0.1278
  97       8.216e+00      -1.023e+01       0.000e+00           0.000           0.000           1.000       4.252e-01          0.1726
  98       7.517e+00      -1.023e+01       0.000e+00           0.000           0.000           1.000       4.128e-01          0.2371
  99       6.848e+00      -1.023e+01       0.000e+00           0.000           0.000           1.000       3.765e-01          0.3314
 100       6.249e+00      -1.023e+01       0.000e+00           0.000           0.000           1.000       3.183e-01          0.4739
 101       5.754e+00      -1.023e+01       0.000e+00           0.000           0.000           1.000       2.415e-01          0.7125
 102       5.392e+00      -1.023e+01       0.000e+00           0.000           0.000           1.000       1.508e-01          1.2222
 103       5.183e+00      -1.023e+01       0.000e+00           0.000           0.000           1.000       5.125e-02          2.9770
Strip 9
 104       1.103e+01      -9.589e+00       0.000e+00           0.000           0.000           1.000       6.102e-02          0.0202
 105       1.089e+01      -9.589e+00       0.000e+00           0.000           0.000           1.000       1.795e-01          0.0360
 106       1.059e+01      -9.589e+00       0.000e+00           0.000           0.000           1.000       2.876e-01          0.0547
 107       1.012e+01      -9.589e+00       0.000e+00           0.000           0.000           1.000       3.789e-01          0.0765
 108       9.535e+00      -9.589e+00       0.000e+00           0.000           0.000           1.000       4.482e-01          0.1030
 109       8.851e+00      -9.589e+00       0.000e+00           0.000           0.000           1.000       4.915e-01          0.1375
 110       8.114e+00      -9.589e+00       0.000e+00           0.000           0.000           1.000       5.062e-01          0.1844
 111       7.366e+00      -9.589e+00       0.000e+00           0.000           0.000           1.000       4.915e-01          0.2499
 112       6.651e+00      -9.589e+00       0.000e+00           0.000           0.000           1.000       4.482e-01          0.3434
 113       6.009e+00      -9.589e+00       0.000e+00           0.000           0.000           1.000       3.789e-01          0.4832
 114       5.479e+00      -9.589e+00       0.000e+00           0.000           0.000           1.000       2.876e-01          0.7182
 115       5.092e+00      -9.589e+00       0.000e+00           0.000           0.000           1.000       1.795e-01          1.2243
 116       4.868e+00      -9.589e+00       0.000e+00           0.000           0.000           1.000       6.102e-02          2.9757
Strip 10
 117       1.113e+01      -8.886e+00       0.000e+00           0.000           0.000           1.000       7.161e-02          0.0213
 118       1.098e+01      -8.886e+00       0.000e+00           0.000           0.000           1.000       2.107e-01          0.0378
 119       1.065e+01      -8.886e+00       0.000e+00           0.000           0.000           1.000       3.375e-01          0.0576
 120       1.016e+01      -8.886e+00       0.000e+00           0.000           0.000           1.000       4.447e-01          0.0806
 121       9.526e+00      -8.886e+00       0.000e+00           0.000           0.000           1.000       5.260e-01          0.1085
 122       8.793e+00      -8.886e+00       0.000e+00           0.000           0.000           1.000       5.768e-01          0.1442
 123       8.003e+00      -8.886e+00       0.000e+00           0.000           0.000           1.000       5.941e-01          0.1919
 124       7.200e+00      -8.886e+00       0.000e+00           0.000           0.000           1.000       5.768e-01          0.2571
 125       6.433e+00      -8.886e+00       0.000e+00           0.000           0.000           1.000       5.260e-01          0.3487
 126       5.745e+00      -8.886e+00       0.000e+00           0.000           0.000           1.000       4.447e-01          0.4853
 127       5.177e+00      -8.886e+00       0.000e+00           0.000           0.000           1.000       3.375e-01          0.7158
 128       4.761e+00      -8.886e+00       0.000e+00           0.000           0.000           1.000       2.107e-01          1.2152
 129       4.521e+00      -8.886e+00       0.000e+00           0.000           0.000           1.000       7.161e-02          2.9497
Strip 11
 130       1.124e+01      -8.122e+00       0.000e+00           0.000           0.000           1.000       8.296e-02          0.0220
 131       1.108e+01      -8.122e+00       0.000e+00           0.000           0.000           1.000       2.441e-01          0.0391
 132       1.073e+01      -8.122e+00       0.000e+00           0.000           0.000           1.000       3.910e-01          0.0596
 133       1.020e+01      -8.122e+00       0.000e+00           0.000           0.000           1.000       5.152e-01          0.0833
 134       9.517e+00      -8.122e+00       0.000e+00           0.000           0.000           1.000       6.094e-01          0.1119
 135       8.730e+00      -8.122e+00       0.000e+00           0.000           0.000           1.000       6.682e-01          0.1482
 136       7.882e+00      -8.122e+00       0.000e+00           0.000           0.000           1.000       6.882e-01          0.1958
 137       7.020e+00      -8.122e+00       0.000e+00           0.000           0.000           1.000       6.682e-01          0.2598
 138       6.196e+00      -8.122e+00       0.000e+00           0.000           0.000           1.000       6.094e-01          0.3491
 139       5.458e+00      -8.122e+00       0.000e+00           0.000           0.000           1.000       5.152e-01          0.4820
 140       4.848e+00      -8.122e+00       0.000e+00           0.000           0.000           1.000       3.910e-01          0.7072
 141       4.401e+00      -8.122e+00       0.000e+00           0.000           0.000           1.000       2.441e-01          1.1973
 142       4.144e+00      -8.122e+00       0.000e+00           0.000           0.000           1.000       8.296e-02          2.9036
Strip 12
 143       1.135e+01      -7.302e+00       0.000e+00           0.000           0.000           1.000       9.498e-02          0.0224
 144       1.119e+01      -7.302e+00       0.000e+00           0.000           0.000           1.000       2.794e-01          0.0398
 145       1.081e+01      -7.302e+00       0.000e+00           0.000           0.000           1.000       4.476e-01          0.0607
 146       1.024e+01      -7.302e+00       0.000e+00           0.000           0.000           1.000       5.898e-01          0.0848
 147       9.507e+00      -7.302e+00       0.000e+00           0.000           0.000           1.000       6.977e-01          0.1137
 148       8.663e+00      -7.302e+00       0.000e+00           0.000           0.000           1.000       7.650e-01          0.1499
 149       7.752e+00      -7.302e+00       0.000e+00           0.000           0.000           1.000       7.879e-01          0.1968
 150       6.827e+00      -7.302e+00       0.000e+00           0.000           0.000           1.000       7.650e-01          0.2592
 151       5.943e+00      -7.302e+00       0.000e+00           0.000           0.000           1.000       6.977e-01          0.3457
 152       5.150e+00      -7.302e+00       0.000e+00           0.000           0.000           1.000       5.898e-01          0.4746
 153       4.495e+00      -7.302e+00       0.000e+00           0.000           0.000           1.000       4.476e-01          0.6936
 154       4.015e+00      -7.302e+00       0.000e+00           0.000           0.000           1.000       2.794e-01          1.1720
 155       3.740e+00      -7.302e+00       0.000e+00           0.000           0.000           1.000       9.498e-02          2.8409
Strip 13
 156       1.148e+01      -6.432e+00       0.000e+00           0.000           0.000           1.000       1.075e-01          0.0225
 157       1.130e+01      -6.432e+00       0.000e+00           0.000           0.000           1.000       3.163e-01          0.0401
 158       1.089e+01      -6.432e+00       0.000e+00           0.000           0.000           1.000       5.068e-01          0.0611
 159       1.028e+01      -6.432e+00       0.000e+00           0.000           0.000           1.000       6.677e-01          0.0853
 160       9.497e+00      -6.432e+00       0.000e+00           0.000           0.000           1.000       7.899e-01          0.1142
 161       8.591e+00      -6.432e+00       0.000e+00           0.000           0.000           1.000       8.662e-01          0.1500
 162       7.614e+00      -6.432e+00       0.000e+00           0.000           0.000           1.000       8.921e-01          0.1957
 163       6.622e+00      -6.432e+00       0.000e+00           0.000           0.000           1.000       8.662e-01          0.2562
 164       5.673e+00      -6.432e+00       0.000e+00           0.000           0.000           1.000       7.899e-01          0.3396
 165       4.823e+00      -6.432e+00       0.000e+00           0.000           0.000           1.000       6.677e-01          0.4639
 166       4.120e+00      -6.432e+00       0.000e+00           0.000           0.000           1.000       5.068e-01          0.6760
 167       3.606e+00      -6.432e+00       0.000e+00           0.000           0.000           1.000       3.163e-01          1.1405
 168       3.310e+00      -6.432e+00       0.000e+00           0.000           0.000           1.000       1.075e-01          2.7637
Strip 14
 169       1.161e+01      -5.519e+00       0.000e+00           0.000           0.000           1.000       1.204e-01          0.0225
 170       1.142e+01      -5.519e+00       0.000e+00           0.000           0.000           1.000       3.543e-01          0.0400
 171       1.098e+01      -5.519e+00       0.000e+00           0.000           0.000           1.000       5.676e-01          0.0610
 172       1.032e+01      -5.519e+00       0.000e+00           0.000           0.000           1.000       7.480e-01          0.0851
 173       9.486e+00      -5.519e+00       0.000e+00           0.000           0.000           1.000       8.848e-01          0.1137
 174       8.516e+00      -5.519e+00       0.000e+00           0.000           0.000           1.000       9.702e-01          0.1488
 175       7.469e+00      -5.519e+00       0.000e+00           0.000           0.000           1.000       9.993e-01          0.1932
 176       6.407e+00      -5.519e+00       0.000e+00           0.000           0.000           1.000       9.702e-01          0.2514
 177       5.391e+00      -5.519e+00       0.000e+00           0.000           0.000           1.000       8.848e-01          0.3314
 178       4.480e+00      -5.519e+00       0.000e+00           0.000           0.000           1.000       7.480e-01          0.4507
 179       3.727e+00      -5.519e+00       0.000e+00           0.000           0.000           1.000       5.676e-01          0.6548
 180       3.176e+00      -5.519e+00       0.000e+00           0.000           0.000           1.000       3.543e-01          1.1034
 181       2.860e+00      -5.519e+00       0.000e+00           0.000           0.000           1.000       1.204e-01          2.6730
Strip 15
 182       1.174e+01      -4.568e+00       0.000e+00           0.000           0.000           1.000       1.335e-01          0.0223
 183       1.154e+01      -4.568e+00       0.000e+00           0.000           0.000           1.000       3.928e-01          0.0398
 184       1.107e+01      -4.568e+00       0.000e+00           0.000           0.000           1.000       6.293e-01          0.0606
 185       1.037e+01      -4.568e+00       0.000e+00           0.000           0.000           1.000       8.292e-01          0.0845
 186       9.475e+00      -4.568e+00       0.000e+00           0.000           0.000           1.000       9.809e-01          0.1127
 187       8.437e+00      -4.568e+00       0.000e+00           0.000           0.000           1.000       1.076e+00          0.1470
 188       7.318e+00      -4.568e+00       0.000e+00           0.000           0.000           1.000       1.108e+00          0.1899
 189       6.182e+00      -4.568e+00       0.000e+00           0.000           0.000           1.000       1.076e+00          0.2456
 190       5.096e+00      -4.568e+00       0.000e+00           0.000           0.000           1.000       9.809e-01          0.3218
 191       4.122e+00      -4.568e+00       0.000e+00           0.000           0.000           1.000       8.292e-01          0.4353
 192       3.318e+00      -4.568e+00       0.000e+00           0.000           0.000           1.000       6.293e-01          0.6303
 193       2.729e+00      -4.568e+00       0.000e+00           0.000           0.000           1.000       3.928e-01          1.0605
 194       2.390e+00      -4.568e+00       0.000e+00           0.000           0.000           1.000       1.335e-01          2.5686
Strip 16
 195       1.188e+01      -3.586e+00       0.000e+00           0.000           0.000           1.000       1.466e-01          0.0221
 196       1.166e+01      -3.586e+00       0.000e+00           0.000           0.000           1.000       4.311e-01          0.0394
 197       1.117e+01      -3.586e+00       0.000e+00           0.000           0.000           1.000       6.907e-01          0.0600
 198       1.042e+01      -3.586e+00       0.000e+00           0.000           0.000           1.000       9.101e-01          0.0836
 199       9.463e+00      -3.586e+00       0.000e+00           0.000           0.000           1.000       1.077e+00          0.1114
 200       8.356e+00      -3.586e+00       0.000e+00           0.000           0.000           1.000       1.180e+00          0.1449
 201       7.162e+00      -3.586e+00       0.000e+00           0.000           0.000           1.000       1.216e+00          0.1864
 202       5.951e+00      -3.586e+00       0.000e+00           0.000           0.000           1.000       1.180e+00          0.2395
 203       4.792e+00      -3.586e+00       0.000e+00           0.000           0.000           1.000       1.077e+00          0.3114
 204       3.753e+00      -3.586e+00       0.000e+00           0.000           0.000           1.000       9.101e-01          0.4183
 205       2.895e+00      -3.586e+00       0.000e+00           0.000           0.000           1.000       6.907e-01          0.6024
 206       2.267e+00      -3.586e+00       0.000e+00           0.000           0.000           1.000       4.311e-01          1.0110
 207       1.905e+00      -3.586e+00       0.000e+00           0.000           0.000           1.000       1.466e-01          2.4478
Strip 17
 208       1.203e+01      -2.579e+00       0.000e+00           0.000           0.000           1.000       1.593e-01          0.0218
 209       1.179e+01      -2.579e+00       0.000e+00           0.000           0.000           1.000       4.685e-01          0.0388
 210       1.126e+01      -2.579e+00       0.000e+00           0.000           0.000           1.000       7.505e-01          0.0593
 211       1.047e+01      -2.579e+00       0.000e+00           0.000           0.000           1.000       9.889e-01          0.0827
 212       9.451e+00      -2.579e+00       0.000e+00           0.000           0.000           1.000       1.170e+00          0.1102
 213       8.273e+00      -2.579e+00       0.000e+00           0.000           0.000           1.000       1.283e+00          0.1432
 214       7.003e+00      -2.579e+00       0.000e+00           0.000           0.000           1.000       1.321e+00          0.1834
 215       5.713e+00      -2.579e+00       0.000e+00           0.000           0.000           1.000       1.283e+00          0.2341
 216       4.480e+00      -2.579e+00       0.000e+00           0.000           0.000           1.000       1.170e+00          0.3013
 217       3.375e+00      -2.579e+00       0.000e+00           0.000           0.000           1.000       9.889e-01          0.4002
 218       2.461e+00      -2.579e+00       0.000e+00           0.000           0.000           1.000       7.505e-01          0.5707
 219       1.793e+00      -2.579e+00       0.000e+00           0.000           0.000           1.000       4.685e-01          0.9528
 220       1.408e+00      -2.579e+00       0.000e+00           0.000           0.000           1.000       1.593e-01          2.3041
Strip 18
 221       1.217e+01      -1.554e+00       0.000e+00           0.000           0.000           1.000       1.714e-01          0.0214
 222       1.192e+01      -1.554e+00       0.000e+00           0.000           0.000           1.000       5.042e-01          0.0382
 223       1.136e+01      -1.554e+00       0.000e+00           0.000           0.000           1.000       8.076e-01          0.0584
 224       1.052e+01      -1.554e+00       0.000e+00           0.000           0.000           1.000       1.064e+00          0.0818
 225       9.438e+00      -1.554e+00       0.000e+00           0.000           0.000           1.000       1.259e+00          0.1093
 226       8.188e+00      -1.554e+00       0.000e+00           0.000           0.000           1.000       1.380e+00          0.1421
 227       6.840e+00      -1.554e+00       0.000e+00           0.000           0.000           1.000       1.422e+00          0.1817
 228       5.472e+00      -1.554e+00       0.000e+00           0.000           0.000           1.000       1.380e+00          0.2306
 229       4.163e+00      -1.554e+00       0.000e+00           0.000           0.000           1.000       1.259e+00          0.2934
 230       2.990e+00      -1.554e+00       0.000e+00           0.000           0.000           1.000       1.064e+00          0.3827
 231       2.020e+00      -1.554e+00       0.000e+00           0.000           0.000           1.000       8.076e-01          0.5346
 232       1.311e+00      -1.554e+00       0.000e+00           0.000           0.000           1.000       5.042e-01          0.8803
 233       9.027e-01      -1.554e+00       0.000e+00           0.000           0.000           1.000       1.714e-01          2.1208
Strip 19
 234       1.232e+01      -5.193e-01       0.000e+00           0.000           0.000           1.000       1.826e-01          0.0206
 235       1.206e+01      -5.193e-01       0.000e+00           0.000           0.000           1.000       5.373e-01          0.0371
 236       1.146e+01      -5.193e-01       0.000e+00           0.000           0.000           1.000       8.607e-01          0.0572
 237       1.057e+01      -5.193e-01       0.000e+00           0.000           0.000           1.000       1.134e+00          0.0807
 238       9.426e+00      -5.193e-01       0.000e+00           0.000           0.000           1.000       1.342e+00          0.1085
 239       8.103e+00      -5.193e-01       0.000e+00           0.000           0.000           1.000       1.471e+00          0.1416
 240       6.676e+00      -5.193e-01       0.000e+00           0.000           0.000           1.000       1.515e+00          0.1816
 241       5.228e+00      -5.193e-01       0.000e+00           0.000           0.000           1.000       1.471e+00          0.2304
 242       3.843e+00      -5.193e-01       0.000e+00           0.000           0.000           1.000       1.342e+00          0.2915
 243       2.601e+00      -5.193e-01       0.000e+00           0.000           0.000           1.000       1.134e+00          0.3727
 244       1.575e+00      -5.193e-01       0.000e+00           0.000           0.000           1.000       8.607e-01          0.4989
 245       8.238e-01      -5.193e-01       0.000e+00           0.000           0.000           1.000       5.373e-01          0.7810
 246       3.918e-01      -5.193e-01       0.000e+00           0.000           0.000           1.000       1.826e-01          1.8410
Strip 20
 247       1.232e+01       5.193e-01       0.000e+00           0.000           0.000           1.000       1.826e-01          0.0206
 248       1.206e+01       5.193e-01       0.000e+00           0.000           0.000           1.000       5.373e-01          0.0371
 249       1.146e+01       5.193e-01       0.000e+00           0.000           0.000           1.000       8.607e-01          0.0572
 250       1.057e+01       5.193e-01       0.000e+00           0.000           0.000           1.000       1.134e+00          0.0807
 251       9.426e+00       5.193e-01       0.000e+00           0.000           0.000           1.000       1.342e+00          0.1085
 252       8.103e+00       5.193e-01       0.000e+00           0.000           0.000           1.000       1.471e+00          0.1416
 253       6.676e+00       5.193e-01       0.000e+00           0.000           0.000           1.000       1.515e+00          0.1816
 254       5.228e+00       5.193e-01       0.000e+00           0.000           0.000           1.000       1.471e+00          0.2304
 255       3.843e+00       5.193e-01       0.000e+00           0.000           0.000           1.000       1.342e+00          0.2915
 256       2.601e+00       5.193e-01       0.000e+00           0.000           0.000           1.000       1.134e+00          0.3727
 257       1.575e+00       5.193e-01       0.000e+00           0.000           0.000           1.000       8.607e-01          0.4989
 258       8.238e-01       5.193e-01       0.000e+00           0.000           0.000           1.000       5.373e-01          0.7810
 259       3.918e-01       5.193e-01       0.000e+00           0.000           0.000           1.000       1.826e-01          1.8410
Strip 21
 260       1.217e+01       1.554e+00       0.000e+00           0.000           0.000           1.000       1.714e-01          0.0214
 261       1.192e+01       1.554e+00       0.000e+00           0.000           0.000           1.000       5.042e-01          0.0382
 262       1.136e+01       1.554e+00       0.000e+00           0.000           0.000           1.000       8.076e-01          0.0584
 263       1.052e+01       1.554e+00       0.000e+00           0.000           0.000           1.000       1.064e+00          0.0818
 264       9.438e+00       1.554e+00       0.000e+00           0.000           0.000           1.000       1.259e+00          0.1093
 265       8.188e+00       1.554e+00       0.000e+00           0.000           0.000           1.000       1.380e+00          0.1421
 266       6.840e+00       1.554e+00       0.000e+00           0.000           0.000           1.000       1.422e+00          0.1817
 267       5.472e+00       1.554e+00       0.000e+00           0.000           0.000           1.000       1.380e+00          0.2306
 268       4.163e+00       1.554e+00       0.000e+00           0.000           0.000           1.000       1.259e+00          0.2934
 269       2.990e+00       1.554e+00       0.000e+00           0.000           0.000           1.000       1.064e+00          0.3827
 270       2.020e+00       1.554e+00       0.000e+00           0.000           0.000           1.000       8.076e-01          0.5346
 271       1.311e+00       1.554e+00       0.000e+00           0.000           0.000           1.000       5.042e-01          0.8803
 272       9.027e-01       1.554e+00       0.000e+00           0.000           0.000           1.000       1.714e-01          2.1208
Strip 22
 273       1.203e+01       2.579e+00       0.000e+00           0.000           0.000           1.000       1.593e-01          0.0218
 274       1.179e+01       2.579e+00       0.000e+00           0.000           0.000           1.000       4.685e-01          0.0388
 275       1.126e+01       2.579e+00       0.000e+00           0.000           0.000           1.000       7.505e-01          0.0593
 276       1.047e+01       2.579e+00       0.000e+00           0.000           0.000           1.000       9.889e-01          0.0827
 277       9.451e+00       2.579e+00       0.000e+00           0.000           0.000           1.000       1.170e+00          0.1102
 278       8.273e+00       2.579e+00       0.000e+00           0.000           0.000           1.000       1.283e+00          0.1432
 279       7.003e+00       2.579e+00       0.000e+00           0.000           0.000           1.000       1.321e+00          0.1834
 280       5.713e+00       2.579e+00       0.000e+00           0.000           0.000           1.000       1.283e+00          0.2341
 281       4.480e+00       2.579e+00       0.000e+00           0.000           0.000           1.000       1.170e+00          0.3013
 282       3.375e+00       2.579e+00       0.000e+00           0.000           0.000           1.000       9.889e-01          0.4002
 283       2.461e+00       2.579e+00       0.000e+00           0.000           0.000           1.000       7.505e-01          0.5707
 284       1.793e+00       2.579e+00       0.000e+00           0.000           0.000           1.000       4.685e-01          0.9528
 285       1.408e+00       2.579e+00       0.000e+00           0.000           0.000           1.000       1.593e-01          2.3041
Strip 23
 286       1.188e+01       3.586e+00       0.000e+00           0.000           0.000           1.000       1.466e-01          0.0221
 287       1.166e+01       3.586e+00       0.000e+00           0.000           0.000           1.000       4.311e-01          0.0394
 288       1.117e+01       3.586e+00       0.000e+00           0.000           0.000           1.000       6.907e-01          0.0600
 289       1.042e+01       3.586e+00       0.000e+00           0.000           0.000           1.000       9.101e-01          0.0836
 290       9.463e+00       3.586e+00       0.000e+00           0.000           0.000           1.000       1.077e+00          0.1114
 291       8.356e+00       3.586e+00       0.000e+00           0.000           0.000           1.000       1.180e+00          0.1449
 292       7.162e+00       3.586e+00       0.000e+00           0.000           0.000           1.000       1.216e+00          0.1864
 293       5.951e+00       3.586e+00       0.000e+00           0.000           0.000           1.000       1.180e+00          0.2395
 294       4.792e+00       3.586e+00       0.000e+00           0.000           0.000           1.000       1.077e+00          0.3114
 295       3.753e+00       3.586e+00       0.000e+00           0.000           0.000           1.000       9.101e-01          0.4183
 296       2.895e+00       3.586e+00       0.000e+00           0.000           0.000           1.000       6.907e-01          0.6024
 297       2.267e+00       3.586e+00       0.000e+00           0.000           0.000           1.000       4.311e-01          1.0110
 298       1.905e+00       3.586e+00       0.000e+00           0.000           0.000           1.000       1.466e-01          2.4478
Strip 24
 299       1.174e+01       4.568e+00       0.000e+00           0.000           0.000           1.000       1.335e-01          0.0223
 300       1.154e+01       4.568e+00       0.000e+00           0.000           0.000           1.000       3.928e-01          0.0398
 301       1.107e+01       4.568e+00       0.000e+00           0.000           0.000           1.000       6.293e-01          0.0606
 302       1.037e+01       4.568e+00       0.000e+00           0.000           0.000           1.000       8.292e-01          0.0845
 303       9.475e+00       4.568e+00       0.000e+00           0.000           0.000           1.000       9.809e-01          0.1127
 304       8.437e+00       4.568e+00       0.000e+00           0.000           0.000           1.000       1.076e+00          0.1470
 305       7.318e+00       4.568e+00       0.000e+00           0.000           0.000           1.000       1.108e+00          0.1899
 306       6.182e+00       4.568e+00       0.000e+00           0.000           0.000           1.000       1.076e+00          0.2456
 307       5.096e+00       4.568e+00       0.000e+00           0.000           0.000           1.000       9.809e-01          0.3218
 308       4.122e+00       4.568e+00       0.000e+00           0.000           0.000           1.000       8.292e-01          0.4353
 309       3.318e+00       4.568e+00       0.000e+00           0.000           0.000           1.000       6.293e-01          0.6303
 310       2.729e+00       4.568e+00       0.000e+00           0.000           0.000           1.000       3.928e-01          1.0605
 311       2.390e+00       4.568e+00       0.000e+00           0.000           0.000           1.000       1.335e-01          2.5686
Strip 25
 312       1.161e+01       5.519e+00       0.000e+00           0.000           0.000           1.000       1.204e-01          0.0225
 313       1.142e+01       5.519e+00       0.000e+00           0.000           0.000           1.000       3.543e-01          0.0400
 314       1.098e+01       5.519e+00       0.000e+00           0.000           0.000           1.000       5.676e-01          0.0610
 315       1.032e+01       5.519e+00       0.000e+00           0.000           0.000           1.000       7.480e-01          0.0851
 316       9.486e+00       5.519e+00       0.000e+00           0.000           0.000           1.000       8.848e-01          0.1137
 317       8.516e+00       5.519e+00       0.000e+00           0.000           0.000           1.000       9.702e-01          0.1488
 318       7.469e+00       5.519e+00       0.000e+00           0.000           0.000           1.000       9.993e-01          0.1932
 319       6.407e+00       5.519e+00       0.000e+00           0.000           0.000           1.000       9.702e-01          0.2514
 320       5.391e+00       5.519e+00       0.000e+00           0.000           0.000           1.000       8.848e-01          0.3314
 321       4.480e+00       5.519e+00       0.000e+00           0.000           0.000           1.000       7.480e-01          0.4507
 322       3.727e+00       5.519e+00       0.000e+00           0.000           0.000           1.000       5.676e-01          0.6548
 323       3.176e+00       5.519e+00       0.000e+00           0.000           0.000           1.000       3.543e-01          1.1034
 324       2.860e+00       5.519e+00       0.000e+00           0.000           0.000           1.000       1.204e-01          2.6730
Strip 26
 325       1.148e+01       6.432e+00       0.000e+00           0.000           0.000           1.000       1.075e-01          0.0225
 326       1.130e+01       6.432e+00       0.000e+00           0.000           0.000           1.000       3.163e-01          0.0401
 327       1.089e+01       6.432e+00       0.000e+00           0.000           0.000           1.000       5.068e-01          0.0611
 328       1.028e+01       6.432e+00       0.000e+00           0.000           0.000           1.000       6.677e-01          0.0853
 329       9.497e+00       6.432e+00       0.000e+00           0.000           0.000           1.000       7.899e-01          0.1142
 330       8.591e+00       6.432e+00       0.000e+00           0.000           0.000           1.000       8.662e-01          0.1500
 331       7.614e+00       6.432e+00       0.000e+00           0.000           0.000           1.000       8.921e-01          0.1957
 332       6.622e+00       6.432e+00       0.000e+00           0.000           0.000           1.000       8.662e-01          0.2562
 333       5.673e+00       6.432e+00       0.000e+00           0.000           0.000           1.000       7.899e-01          0.3396
 334       4.823e+00       6.432e+00       0.000e+00           0.000           0.000           1.000       6.677e-01          0.4639
 335       4.120e+00       6.432e+00       0.000e+00           0.000           0.000           1.000       5.068e-01          0.6760
 336       3.606e+00       6.432e+00       0.000e+00           0.000           0.000           1.000       3.163e-01          1.1405
 337       3.310e+00       6.432e+00       0.000e+00           0.000           0.000           1.000       1.075e-01          2.7637
Strip 27
 338       1.135e+01       7.302e+00       0.000e+00           0.000           0.000           1.000       9.498e-02          0.0224
 339       1.119e+01       7.302e+00       0.000e+00           0.000           0.000           1.000       2.794e-01          0.0398
 340       1.081e+01       7.302e+00       0.000e+00           0.000           0.000           1.000       4.476e-01          0.0607
 341       1.024e+01       7.302e+00       0.000e+00           0.000           0.000           1.000       5.898e-01          0.0848
 342       9.507e+00       7.302e+00       0.000e+00           0.000           0.000           1.000       6.977e-01          0.1137
 343       8.663e+00       7.302e+00       0.000e+00           0.000           0.000           1.000       7.650e-01          0.1499
 344       7.752e+00       7.302e+00       0.000e+00           0.000           0.000           1.000       7.879e-01          0.1968
 345       6.827e+00       7.302e+00       0.000e+00           0.000           0.000           1.000       7.650e-01          0.2592
 346       5.943e+00       7.302e+00       0.000e+00           0.000           0.000           1.000       6.977e-01          0.3457
 347       5.150e+00       7.302e+00       0.000e+00           0.000           0.000           1.000       5.898e-01          0.4746
 348       4.495e+00       7.302e+00       0.000e+00           0.000           0.000           1.000       4.476e-01          0.6936
 349       4.015e+00       7.302e+00       0.000e+00           0.000           0.000           1.000       2.794e-01          1.1720
 350       3.740e+00       7.302e+00       0.000e+00           0.000           0.000           1.000       9.498e-02          2.8409
Strip 28
 351       1.124e+01       8.122e+00       0.000e+00           0.000           0.000           1.000       8.296e-02          0.0220
 352       1.108e+01       8.122e+00       0.000e+00           0.000           0.000           1.000       2.441e-01          0.0391
 353       1.073e+01       8.122e+00       0.000e+00           0.000           0.000           1.000       3.910e-01          0.0596
 354       1.020e+01       8.122e+00       0.000e+00           0.000           0.000           1.000       5.152e-01          0.0833
 355       9.517e+00       8.122e+00       0.000e+00           0.000           0.000           1.000       6.094e-01          0.1119
 356       8.730e+00       8.122e+00       0.000e+00           0.000           0.000           1.000       6.682e-01          0.1482
 357       7.882e+00       8.122e+00       0.000e+00           0.000           0.000           1.000       6.882e-01          0.1958
 358       7.020e+00       8.122e+00       0.000e+00           0.000           0.000           1.000       6.682e-01          0.2598
 359       6.196e+00       8.122e+00       0.000e+00           0.000           0.000           1.000       6.094e-01          0.3491
 360       5.458e+00       8.122e+00       0.000e+00           0.000           0.000           1.000       5.152e-01          0.4820
 361       4.848e+00       8.122e+00       0.000e+00           0.000           0.000           1.000       3.910e-01          0.7072
 362       4.401e+00       8.122e+00       0.000e+00           0.000           0.000           1.000       2.441e-01          1.1973
 363       4.144e+00       8.122e+00       0.000e+00           0.000           0.000           1.000       8.296e-02          2.9036
Strip 29
 364       1.113e+01       8.886e+00       0.000e+00           0.000           0.000           1.000       7.161e-02          0.0213
 365       1.098e+01       8.886e+00       0.000e+00           0.000           0.000           1.000       2.107e-01          0.0378
 366       1.065e+01       8.886e+00       0.000e+00           0.000           0.000           1.000       3.375e-01          0.0576
 367       1.016e+01       8.886e+00       0.000e+00           0.000           0.000           1.000       4.447e-01          0.0806
 368       9.526e+00       8.886e+00       0.000e+00           0.000           0.000           1.000       5.260e-01          0.1085
 369       8.793e+00       8.886e+00       0.000e+00           0.000           0.000           1.000       5.768e-01          0.1442
 370       8.003e+00       8.886e+00       0.000e+00           0.000           0.000           1.000       5.941e-01          0.1919
 371       7.200e+00       8.886e+00       0.000e+00           0.000           0.000           1.000       5.768e-01          0.2571
 372       6.433e+00       8.886e+00       0.000e+00           0.000           0.000           1.000       5.260e-01          0.3487
 373       5.745e+00       8.886e+00       0.000e+00           0.000           0.000           1.000       4.447e-01          0.4853
 374       5.177e+00       8.886e+00       0.000e+00           0.000           0.000           1.000       3.375e-01          0.7158
 375       4.761e+00       8.886e+00       0.000e+00           0.000           0.000           1.000       2.107e-01          1.2152
 376       4.521e+00       8.886e+00       0.000e+00           0.000           0.000           1.000       7.161e-02          2.9497
Strip 30
 377       1.103e+01       9.589e+00       0.000e+00           0.000           0.000           1.000       6.102e-02          0.0202
 378       1.089e+01       9.589e+00       0.000e+00           0.000           0.000           1.000       1.795e-01          0.0360
 379       1.059e+01       9.589e+00       0.000e+00           0.000           0.000           1.000       2.876e-01          0.0547
 380       1.012e+01       9.589e+00       0.000e+00           0.000           0.000           1.000       3.789e-01          0.0765
 381       9.535e+00       9.589e+00       0.000e+00           0.000           0.000           1.000       4.482e-01          0.1030
 382       8.851e+00       9.589e+00       0.000e+00           0.000           0.000           1.000       4.915e-01          0.1375
 383       8.114e+00       9.589e+00       0.000e+00           0.000           0.000           1.000       5.062e-01          0.1844
 384       7.366e+00       9.589e+00       0.000e+00           0.000           0.000           1.000       4.915e-01          0.2499
 385       6.651e+00       9.589e+00       0.000e+00           0.000           0.000           1.000       4.482e-01          0.3434
 386       6.009e+00       9.589e+00       0.000e+00           0.000           0.000           1.000       3.789e-01          0.4832
 387       5.479e+00       9.589e+00       0.000e+00           0.000           0.000           1.000       2.876e-01          0.7182
 388       5.092e+00       9.589e+00       0.000e+00           0.000           0.000           1.000       1.795e-01          1.2243
 389       4.868e+00       9.589e+00       0.000e+00           0.000           0.000           1.000       6.102e-02          2.9757
Strip 31
 390       1.094e+01       1.023e+01       0.000e+00           0.000           0.000           1.000       5.125e-02          0.0188
 391       1.081e+01       1.023e+01       0.000e+00           0.000           0.000           1.000       1.508e-01          0.0335
 392       1.053e+01       1.023e+01       0.000e+00           0.000           0.000           1.000       2.415e-01          0.0508
 393       1.009e+01       1.023e+01       0.000e+00           0.000           0.000           1.000       3.183e-01          0.0709
 394       9.542e+00       1.023e+01       0.000e+00           0.000           0.000           1.000       3.765e-01          0.0955
 395       8.904e+00       1.023e+01       0.000e+00           0.000           0.000           1.000       4.128e-01          0.1278
 396       8.216e+00       1.023e+01       0.000e+00           0.000           0.000           1.000       4.252e-01          0.1726
 397       7.517e+00       1.023e+01       0.000e+00           0.000           0.000           1.000       4.128e-01          0.2371
 398       6.848e+00       1.023e+01       0.000e+00           0.000           0.000           1.000       3.765e-01          0.3314
 399       6.249e+00       1.023e+01       0.000e+00           0.000           0.000           1.000       3.183e-01          0.4739
 400       5.754e+00       1.023e+01       0.000e+00           0.000           0.000           1.000       2.415e-01          0.7125
 401       5.392e+00       1.023e+01       0.000e+00           0.000           0.000           1.000       1.508e-01          1.2222
 402       5.183e+00       1.023e+01       0.000e+00           0.000           0.000           1.000       5.125e-02          2.9770
Strip 32
 403       1.086e+01       1.080e+01       0.000e+00           0.000           0.000           1.000       4.231e-02          0.0172
 404       1.074e+01       1.080e+01       0.000e+00           0.000           0.000           1.000       1.245e-01          0.0304
 405       1.047e+01       1.080e+01       0.000e+00           0.000           0.000           1.000       1.994e-01          0.0461
 406       1.007e+01       1.080e+01       0.000e+00           0.000           0.000           1.000       2.628e-01          0.0640
 407       9.549e+00       1.080e+01       0.000e+00           0.000           0.000           1.000       3.108e-01          0.0859
 408       8.951e+00       1.080e+01       0.000e+00           0.000           0.000           1.000       3.409e-01          0.1150
 409       8.306e+00       1.080e+01       0.000e+00           0.000           0.000           1.000       3.511e-01          0.1561
 410       7.651e+00       1.080e+01       0.000e+00           0.000           0.000           1.000       3.409e-01          0.2175
 411       7.024e+00       1.080e+01       0.000e+00           0.000           0.000           1.000       3.108e-01          0.3107
 412       6.463e+00       1.080e+01       0.000e+00           0.000           0.000           1.000       2.628e-01          0.4549
 413       5.999e+00       1.080e+01       0.000e+00           0.000           0.000           1.000       1.994e-01          0.6962
 414       5.659e+00       1.080e+01       0.000e+00           0.000           0.000           1.000       1.245e-01          1.2062
 415       5.464e+00       1.080e+01       0.000e+00           0.000           0.000           1.000       4.231e-02          2.9478
Strip 33
 416       1.079e+01       1.129e+01       0.000e+00           0.000           0.000           1.000       3.419e-02          0.0153
 417       1.068e+01       1.129e+01       0.000e+00           0.000           0.000           1.000       1.006e-01          0.0270
 418       1.042e+01       1.129e+01       0.000e+00           0.000           0.000           1.000       1.611e-01          0.0406
 419       1.004e+01       1.129e+01       0.000e+00           0.000           0.000           1.000       2.123e-01          0.0560
 420       9.555e+00       1.129e+01       0.000e+00           0.000           0.000           1.000       2.512e-01          0.0748
 421       8.992e+00       1.129e+01       0.000e+00           0.000           0.000           1.000       2.754e-01          0.0997
 422       8.384e+00       1.129e+01       0.000e+00           0.000           0.000           1.000       2.837e-01          0.1355
 423       7.767e+00       1.129e+01       0.000e+00           0.000           0.000           1.000       2.754e-01          0.1907
 424       7.177e+00       1.129e+01       0.000e+00           0.000           0.000           1.000       2.512e-01          0.2791
 425       6.648e+00       1.129e+01       0.000e+00           0.000           0.000           1.000       2.123e-01          0.4225
 426       6.211e+00       1.129e+01       0.000e+00           0.000           0.000           1.000       1.611e-01          0.6655
 427       5.892e+00       1.129e+01       0.000e+00           0.000           0.000           1.000       1.006e-01          1.1722
 428       5.708e+00       1.129e+01       0.000e+00           0.000           0.000           1.000       3.419e-02          2.8806
Strip 34
 429       1.073e+01       1.171e+01       0.000e+00           0.000           0.000           1.000       2.682e-02          0.0132
 430       1.062e+01       1.171e+01       0.000e+00           0.000           0.000           1.000       7.890e-02          0.0232
 431       1.038e+01       1.171e+01       0.000e+00           0.000           0.000           1.000       1.264e-01          0.0347
 432       1.002e+01       1.171e+01       0.000e+00           0.000           0.000           1.000       1.666e-01          0.0474
 433       9.560e+00       1.171e+01       0.000e+00           0.000           0.000           1.000       1.970e-01          0.0627
 434       9.026e+00       1.171e+01       0.000e+00           0.000           0.000           1.000       2.160e-01          0.0830
 435       8.450e+00       1.171e+01       0.000e+00           0.000           0.000           1.000       2.225e-01          0.1123
 436       7.866e+00       1.171e+01       0.000e+00           0.000           0.000           1.000       2.160e-01          0.1582
 437       7.306e+00       1.171e+01       0.000e+00           0.000           0.000           1.000       1.970e-01          0.2358
 438       6.805e+00       1.171e+01       0.000e+00           0.000           0.000           1.000       1.666e-01          0.3721
 439       6.391e+00       1.171e+01       0.000e+00           0.000           0.000           1.000       1.264e-01          0.6144
 440       6.088e+00       1.171e+01       0.000e+00           0.000           0.000           1.000       7.890e-02          1.1148
 441       5.914e+00       1.171e+01       0.000e+00           0.000           0.000           1.000       2.682e-02          2.7665
Strip 35
 442       1.068e+01       1.204e+01       0.000e+00           0.000           0.000           1.000       2.012e-02          0.0111
 443       1.058e+01       1.204e+01       0.000e+00           0.000           0.000           1.000       5.918e-02          0.0194
 444       1.035e+01       1.204e+01       0.000e+00           0.000           0.000           1.000       9.480e-02          0.0285
 445       1.000e+01       1.204e+01       0.000e+00           0.000           0.000           1.000       1.249e-01          0.0385
 446       9.564e+00       1.204e+01       0.000e+00           0.000           0.000           1.000       1.478e-01          0.0504
 447       9.054e+00       1.204e+01       0.000e+00           0.000           0.000           1.000       1.620e-01          0.0660
 448       8.504e+00       1.204e+01       0.000e+00           0.000           0.000           1.000       1.669e-01          0.0884
 449       7.945e+00       1.204e+01       0.000e+00           0.000           0.000           1.000       1.620e-01          0.1234
 450       7.411e+00       1.204e+01       0.000e+00           0.000           0.000           1.000       1.478e-01          0.1841
 451       6.932e+00       1.204e+01       0.000e+00           0.000           0.000           1.000       1.249e-01          0.3005
 452       6.536e+00       1.204e+01       0.000e+00           0.000           0.000           1.000       9.480e-02          0.5331
 453       6.247e+00       1.204e+01       0.000e+00           0.000           0.000           1.000       5.918e-02          1.0251
 454       6.080e+00       1.204e+01       0.000e+00           0.000           0.000           1.000       2.012e-02          2.5936
Strip 36
 455       1.064e+01       1.230e+01       0.000e+00           0.000           0.000           1.000       1.396e-02          0.0090
 456       1.055e+01       1.230e+01       0.000e+00           0.000           0.000           1.000       4.106e-02          0.0154
 457       1.033e+01       1.230e+01       0.000e+00           0.000           0.000           1.000       6.578e-02          0.0221
 458       9.992e+00       1.230e+01       0.000e+00           0.000           0.000           1.000       8.667e-02          0.0294
 459       9.567e+00       1.230e+01       0.000e+00           0.000           0.000           1.000       1.025e-01          0.0381
 460       9.075e+00       1.230e+01       0.000e+00           0.000           0.000           1.000       1.124e-01          0.0494
 461       8.544e+00       1.230e+01       0.000e+00           0.000           0.000           1.000       1.158e-01          0.0655
 462       8.005e+00       1.230e+01       0.000e+00           0.000           0.000           1.000       1.124e-01          0.0902
 463       7.490e+00       1.230e+01       0.000e+00           0.000           0.000           1.000       1.025e-01          0.1323
 464       7.028e+00       1.230e+01       0.000e+00           0.000           0.000           1.000       8.667e-02          0.2155
 465       6.646e+00       1.230e+01       0.000e+00           0.000           0.000           1.000       6.578e-02          0.4089
 466       6.367e+00       1.230e+01       0.000e+00           0.000           0.000           1.000       4.106e-02          0.8844
 467       6.206e+00       1.230e+01       0.000e+00           0.000           0.000           1.000       1.396e-02          2.3457
Strip 37
 468       1.062e+01       1.247e+01       0.000e+00           0.000           0.000           1.000       8.207e-03          0.0068
 469       1.052e+01       1.247e+01       0.000e+00           0.000           0.000           1.000       2.414e-02          0.0111
 470       1.031e+01       1.247e+01       0.000e+00           0.000           0.000           1.000       3.868e-02          0.0155
 471       9.984e+00       1.247e+01       0.000e+00           0.000           0.000           1.000       5.096e-02          0.0203
 472       9.569e+00       1.247e+01       0.000e+00           0.000           0.000           1.000       6.029e-02          0.0262
 473       9.089e+00       1.247e+01       0.000e+00           0.000           0.000           1.000       6.611e-02          0.0337
 474       8.571e+00       1.247e+01       0.000e+00           0.000           0.000           1.000       6.808e-02          0.0443
 475       8.046e+00       1.247e+01       0.000e+00           0.000           0.000           1.000       6.611e-02          0.0603
 476       7.543e+00       1.247e+01       0.000e+00           0.000           0.000           1.000       6.029e-02          0.0868
 477       7.092e+00       1.247e+01       0.000e+00           0.000           0.000           1.000       5.096e-02          0.1371
 478       6.720e+00       1.247e+01       0.000e+00           0.000           0.000           1.000       3.868e-02          0.2563
 479       6.447e+00       1.247e+01       0.000e+00           0.000           0.000           1.000       2.414e-02          0.6470
 480       6.290e+00       1.247e+01       0.000e+00           0.000           0.000           1.000       8.207e-03          1.9956
Strip 38
 481       1.061e+01       1.256e+01       0.000e+00           0.000           0.000           1.000       2.707e-03          0.0044
 482       1.051e+01       1.256e+01       0.000e+00           0.000           0.000           1.000       7.964e-03          0.0066
 483       1.030e+01       1.256e+01       0.000e+00           0.000           0.000           1.000       1.276e-02          0.0091
 484       9.980e+00       1.256e+01       0.000e+00           0.000           0.000           1.000       1.681e-02          0.0118
 485       9.570e+00       1.256e+01       0.000e+00           0.000           0.000           1.000       1.989e-02          0.0152
 486       9.096e+00       1.256e+01       0.000e+00           0.000           0.000           1.000       2.181e-02          0.0195
 487       8.585e+00       1.256e+01       0.000e+00           0.000           0.000           1.000       2.246e-02          0.0256
 488       8.066e+00       1.256e+01       0.000e+00           0.000           0.000           1.000       2.181e-02          0.0346
 489       7.569e+00       1.256e+01       0.000e+00           0.000           0.000           1.000       1.989e-02          0.0495
 490       7.124e+00       1.256e+01       0.000e+00           0.000           0.000           1.000       1.681e-02          0.0769
 491       6.756e+00       1.256e+01       0.000e+00           0.000           0.000           1.000       1.276e-02          0.1385
 492       6.487e+00       1.256e+01       0.000e+00           0.000           0.000           1.000       7.964e-03          0.3307
 493       6.333e+00       1.256e+01       0.000e+00           0.000           0.000           1.000       2.707e-03          1.4250










